<?xml version="1.0" encoding="UTF-8"?>
<routes>
	<vType id="Auto" length="4.0" accel="2.9" decel="7.5" speedFactor="1.0" jmDriveAfterRedTime	= "0"/>
	<vType id="Bus" vClass="bus" length="8.5" accel="1.2" decel="4.0" speedFactor="1.1" minGap="3.0" jmDriveAfterRedTime = "0"/>

	<!-- I1_小東路林森路口 -->
	
	<flow id="Auto_Arterial_EB_I1" type="Auto" beg="0" end="7500" vehsPerHour="1014" color="1,1,0" from="C1E1" departLane="free"/>
	<!-- <flow id="I1_WB" type="Auto" beg="0" end="7500" vehsPerHour="892" color="1,1,0" from="E5E3" departLane="free"/> -->
	<flow id="Auto_CrossStreets_NB_I1" type="Auto" beg="0" end="7500" vehsPerHour="773" color="1,1,0" from="C4E4" departLane="free"/>
	<flow id="Auto_CrossStreets_SB_I1" type="Auto" beg="0" end="7500" vehsPerHour="671" color="1,1,0" from="N1E2" departLane="free"/>
	
	<!-- I2_小東路中華東路口 -->
	
	<!-- <flow id="I2_EB" type="Auto" beg="0" end="7500" vehsPerHour="989" color="1,1,0" from="E3E5" departLane="free"/> -->
	<flow id="Auto_Arterial_WB_I2" type="Auto" beg="0" end="7500" vehsPerHour="920" color="1,1,0" from="C2E7" departLane="free"/>
	<flow id="Auto_CrossStreets_NB_I2" type="Auto" beg="0" end="7500" vehsPerHour="1021" color="1,1,0" from="S2E8" departLane="free"/>
	<flow id="Auto_CrossStreets_SB_I2" type="Auto" beg="0" end="7500" vehsPerHour="733" color="1,1,0" from="N2E6" departLane="free"/>
	
	<flow id="Bus_19_1" type="Bus" begin="0" end="7500" period="1200" color="1,1,1" departLane="0" departSpeed = "random">
		<route edges="C1E1 E1I1 I1E3 E3E5 E5I2 I2E7 E7C2"/> 
	</flow>
	
	<flow id="Bus_19_2" type="Bus" begin="0" end="7500" period="1200" color="1,1,1" departLane="0" departSpeed = "random">
		<route edges="C2E7 E7I2 I2E5 E5E3 E3I1 I1E1 E1C1"/>
	</flow> 
	
	<flow id="Bus_2_1" type="Bus" begin="0" end="7500" period="900" color="1,1,1" departLane="0" departSpeed = "random">
		<route edges="C1E1 E1I1 I1E3 E3E5 E5I2 I2E7 E7C2"/> 
	</flow>
	
	<flow id="Bus_2_2" type="Bus" begin="0" end="7500" period="950" color="1,1,1" departLane="0" departSpeed = "random">
		<route edges="C2E7 E7I2 I2E5 E5E3 E3I1 I1E1 E1C1"/>
	</flow> 
	
	<flow id="Bus_G17_1" type="Bus" begin="0" end="7500" period="1820" color="1,1,1" departLane="0" departSpeed = "random">
		<route edges="C1E1 E1I1 I1E3 E3E5 E5I2 I2E7 E7C2"/> 
	</flow>
	
	<flow id="Bus_G17_2" type="Bus" begin="0" end="7500" period="1800" color="1,1,1" departLane="0" departSpeed = "random">
		<route edges="C2E7 E7I2 I2E5 E5E3 E3I1 I1E1 E1C1"/>
	</flow>
	

	
</routes>