<configuration>
	<input>
		<net-file value="thesis_multiple_500.net.xml"/>
		<route-files value="thesis_multiple_flow_vc0.9_new.rou.xml"/>
	</input>
	<time>
		<begin value="0"/>
		<end value="7500"/>
	</time>
</configuration>