<?xml version="1.0" encoding="UTF-8"?>

<!-- generated on 06/26/20 16:10:28 by Eclipse SUMO netedit Version 1.6.0
<configuration xmlns:xsi="http://www.w3.org/2001/XMLSchema-instance" xsi:noNamespaceSchemaLocation="http://sumo.dlr.de/xsd/netconvertConfiguration.xsd">

    <input>
        <sumo-net-file value="G:\My%20Drive\SUMO\0.Thesis\thesis_multipleIntersections\thesis_multiple_500.net.xml"/>
    </input>

    <output>
        <output-file value="G:\My%20Drive\SUMO\0.Thesis\thesis_multipleIntersections\thesis_multiple_500.net.xml"/>
    </output>

    <processing>
        <geometry.min-radius.fix.railways value="false"/>
        <geometry.max-grade.fix value="false"/>
        <offset.disable-normalization value="true"/>
        <lefthand value="false"/>
    </processing>

    <junctions>
        <no-turnarounds value="true"/>
        <junctions.corner-detail value="5"/>
        <junctions.limit-turn-speed value="5.5"/>
        <rectangular-lane-cut value="false"/>
    </junctions>

    <pedestrian>
        <walkingareas value="false"/>
    </pedestrian>

    <report>
        <aggregate-warnings value="5"/>
    </report>

</configuration>
-->

<net version="1.6" junctionCornerDetail="5" limitTurnSpeed="5.50" xmlns:xsi="http://www.w3.org/2001/XMLSchema-instance" xsi:noNamespaceSchemaLocation="http://sumo.dlr.de/xsd/net_file.xsd">

    <location netOffset="0.00,0.00" convBoundary="0.00,-500.00,2000.00,500.00" origBoundary="-10000000000.00,-10000000000.00,10000000000.00,10000000000.00" projParameter="!"/>

    <edge id=":E1_0" function="internal">
        <lane id=":E1_0_0" index="0" speed="13.89" length="1.07" shape="400.00,8.00 400.00,8.00"/>
        <lane id=":E1_0_1" index="1" speed="13.89" length="1.07" shape="400.00,4.80 400.00,4.80"/>
        <lane id=":E1_0_2" index="2" disallow="all" speed="13.89" length="1.07" shape="400.00,4.80 400.00,1.60"/>
    </edge>
    <edge id=":E1_3" function="internal">
        <lane id=":E1_3_0" index="0" speed="13.89" length="1.07" shape="400.00,-8.00 400.00,-8.00"/>
        <lane id=":E1_3_1" index="1" speed="13.89" length="1.07" shape="400.00,-4.80 400.00,-4.80"/>
        <lane id=":E1_3_2" index="2" speed="13.89" length="1.07" shape="400.00,-4.80 400.00,-1.60"/>
    </edge>
    <edge id=":E2_0" function="internal">
        <lane id=":E2_0_0" index="0" speed="13.89" length="1.07" shape="492.00,100.00 492.00,100.00"/>
        <lane id=":E2_0_1" index="1" speed="13.89" length="1.07" shape="495.20,100.00 495.20,100.00"/>
        <lane id=":E2_0_2" index="2" speed="13.89" length="1.07" shape="495.20,100.00 498.40,100.00"/>
    </edge>
    <edge id=":E2_3" function="internal">
        <lane id=":E2_3_0" index="0" speed="13.89" length="1.07" shape="508.00,100.00 508.00,100.00"/>
        <lane id=":E2_3_1" index="1" speed="13.89" length="1.07" shape="504.80,100.00 504.80,100.00"/>
        <lane id=":E2_3_2" index="2" disallow="all" speed="13.89" length="1.07" shape="504.80,100.00 501.60,100.00"/>
    </edge>
    <edge id=":E3_0" function="internal">
        <lane id=":E3_0_0" index="0" speed="13.89" length="1.07" shape="600.00,8.00 600.00,8.00"/>
        <lane id=":E3_0_1" index="1" speed="13.89" length="1.07" shape="600.00,4.80 600.00,4.80"/>
        <lane id=":E3_0_2" index="2" speed="13.89" length="1.07" shape="600.00,4.80 600.00,1.60"/>
    </edge>
    <edge id=":E3_3" function="internal">
        <lane id=":E3_3_0" index="0" speed="13.89" length="0.10" shape="600.00,-8.00 600.00,-8.00"/>
        <lane id=":E3_3_1" index="1" speed="13.89" length="0.10" shape="600.00,-4.80 600.00,-4.80"/>
    </edge>
    <edge id=":E4_0" function="internal">
        <lane id=":E4_0_0" index="0" speed="13.89" length="1.07" shape="492.00,-50.00 492.00,-50.00"/>
        <lane id=":E4_0_1" index="1" speed="13.89" length="1.07" shape="495.20,-50.00 495.20,-50.00"/>
        <lane id=":E4_0_2" index="2" disallow="all" speed="13.89" length="1.07" shape="495.20,-50.00 498.40,-50.00"/>
    </edge>
    <edge id=":E4_3" function="internal">
        <lane id=":E4_3_0" index="0" speed="13.89" length="1.07" shape="508.00,-50.00 508.00,-50.00"/>
        <lane id=":E4_3_1" index="1" speed="13.89" length="1.07" shape="504.80,-50.00 504.80,-50.00"/>
        <lane id=":E4_3_2" index="2" speed="13.89" length="1.07" shape="504.80,-50.00 501.60,-50.00"/>
    </edge>
    <edge id=":E5_0" function="internal">
        <lane id=":E5_0_0" index="0" speed="13.89" length="0.10" shape="1400.00,8.00 1400.00,8.00"/>
        <lane id=":E5_0_1" index="1" speed="13.89" length="0.10" shape="1400.00,4.80 1400.00,4.80"/>
    </edge>
    <edge id=":E5_2" function="internal">
        <lane id=":E5_2_0" index="0" speed="13.89" length="1.07" shape="1400.00,-8.00 1400.00,-8.00"/>
        <lane id=":E5_2_1" index="1" speed="13.89" length="1.07" shape="1400.00,-4.80 1400.00,-4.80"/>
        <lane id=":E5_2_2" index="2" speed="13.89" length="1.07" shape="1400.00,-4.80 1400.00,-1.60"/>
    </edge>
    <edge id=":E6_0" function="internal">
        <lane id=":E6_0_0" index="0" speed="13.89" length="1.07" shape="1492.00,100.00 1492.00,100.00"/>
        <lane id=":E6_0_1" index="1" speed="13.89" length="1.07" shape="1495.20,100.00 1495.20,100.00"/>
        <lane id=":E6_0_2" index="2" speed="13.89" length="1.07" shape="1495.20,100.00 1498.40,100.00"/>
    </edge>
    <edge id=":E6_3" function="internal">
        <lane id=":E6_3_0" index="0" speed="13.89" length="0.10" shape="1508.00,100.00 1508.00,100.00"/>
        <lane id=":E6_3_1" index="1" speed="13.89" length="0.10" shape="1504.80,100.00 1504.80,100.00"/>
    </edge>
    <edge id=":E7_0" function="internal">
        <lane id=":E7_0_0" index="0" speed="13.89" length="1.07" shape="1600.00,8.00 1600.00,8.00"/>
        <lane id=":E7_0_1" index="1" speed="13.89" length="1.07" shape="1600.00,4.80 1600.00,4.80"/>
        <lane id=":E7_0_2" index="2" speed="13.89" length="1.07" shape="1600.00,4.80 1600.00,1.60"/>
    </edge>
    <edge id=":E7_3" function="internal">
        <lane id=":E7_3_0" index="0" speed="13.89" length="0.10" shape="1600.00,-8.00 1600.00,-8.00"/>
        <lane id=":E7_3_1" index="1" speed="13.89" length="0.10" shape="1600.00,-4.80 1600.00,-4.80"/>
    </edge>
    <edge id=":E8_0" function="internal">
        <lane id=":E8_0_0" index="0" speed="13.89" length="0.10" shape="1492.00,-50.00 1492.00,-50.00"/>
        <lane id=":E8_0_1" index="1" speed="13.89" length="0.10" shape="1495.20,-50.00 1495.20,-50.00"/>
    </edge>
    <edge id=":E8_2" function="internal">
        <lane id=":E8_2_0" index="0" speed="13.89" length="1.07" shape="1508.00,-50.00 1508.00,-50.00"/>
        <lane id=":E8_2_1" index="1" speed="13.89" length="1.07" shape="1504.80,-50.00 1504.80,-50.00"/>
        <lane id=":E8_2_2" index="2" speed="13.89" length="1.07" shape="1504.80,-50.00 1501.60,-50.00"/>
    </edge>
    <edge id=":I1_0" function="internal">
        <lane id=":I1_0_0" index="0" speed="6.51" length="9.03" shape="492.00,13.60 491.65,11.15 490.60,9.40 488.85,8.35 486.40,8.00"/>
    </edge>
    <edge id=":I1_1" function="internal">
        <lane id=":I1_1_0" index="0" speed="13.89" length="27.20" shape="492.00,13.60 492.00,-13.60"/>
        <lane id=":I1_1_1" index="1" speed="13.89" length="27.20" shape="495.20,13.60 495.20,-13.60"/>
    </edge>
    <edge id=":I1_3" function="internal">
        <lane id=":I1_3_0" index="0" speed="11.39" length="29.85" shape="498.40,13.60 499.35,4.15 502.20,-2.60 506.95,-6.65 513.60,-8.00"/>
    </edge>
    <edge id=":I1_4" function="internal">
        <lane id=":I1_4_0" index="0" speed="10.88" length="27.14" shape="498.40,13.60 499.35,5.55 502.20,-0.20 506.95,-3.65 513.60,-4.80"/>
    </edge>
    <edge id=":I1_5" function="internal">
        <lane id=":I1_5_0" index="0" speed="6.51" length="9.03" shape="513.60,8.00 511.15,8.35 509.40,9.40 508.35,11.15 508.00,13.60"/>
    </edge>
    <edge id=":I1_6" function="internal">
        <lane id=":I1_6_0" index="0" speed="13.89" length="27.20" shape="513.60,8.00 486.40,8.00"/>
        <lane id=":I1_6_1" index="1" speed="13.89" length="27.20" shape="513.60,4.80 486.40,4.80"/>
    </edge>
    <edge id=":I1_8" function="internal">
        <lane id=":I1_8_0" index="0" speed="11.39" length="29.85" shape="513.60,1.60 504.15,0.65 497.40,-2.20 493.35,-6.95 492.00,-13.60"/>
    </edge>
    <edge id=":I1_9" function="internal">
        <lane id=":I1_9_0" index="0" speed="10.88" length="27.14" shape="513.60,1.60 505.55,0.65 499.80,-2.20 496.35,-6.95 495.20,-13.60"/>
    </edge>
    <edge id=":I1_10" function="internal">
        <lane id=":I1_10_0" index="0" speed="6.51" length="9.03" shape="508.00,-13.60 508.35,-11.15 509.40,-9.40 511.15,-8.35 513.60,-8.00"/>
    </edge>
    <edge id=":I1_11" function="internal">
        <lane id=":I1_11_0" index="0" speed="13.89" length="27.20" shape="508.00,-13.60 508.00,13.60"/>
        <lane id=":I1_11_1" index="1" speed="13.89" length="27.20" shape="504.80,-13.60 504.80,13.60"/>
    </edge>
    <edge id=":I1_13" function="internal">
        <lane id=":I1_13_0" index="0" speed="11.39" length="29.85" shape="501.60,-13.60 500.65,-4.15 497.80,2.60 493.05,6.65 486.40,8.00"/>
    </edge>
    <edge id=":I1_14" function="internal">
        <lane id=":I1_14_0" index="0" speed="10.88" length="27.14" shape="501.60,-13.60 500.65,-5.55 497.80,0.20 493.05,3.65 486.40,4.80"/>
    </edge>
    <edge id=":I1_15" function="internal">
        <lane id=":I1_15_0" index="0" speed="6.51" length="9.03" shape="486.40,-8.00 488.85,-8.35 490.60,-9.40 491.65,-11.15 492.00,-13.60"/>
    </edge>
    <edge id=":I1_16" function="internal">
        <lane id=":I1_16_0" index="0" speed="13.89" length="27.20" shape="486.40,-8.00 513.60,-8.00"/>
        <lane id=":I1_16_1" index="1" speed="13.89" length="27.20" shape="486.40,-4.80 513.60,-4.80"/>
    </edge>
    <edge id=":I1_18" function="internal">
        <lane id=":I1_18_0" index="0" speed="11.39" length="29.85" shape="486.40,-1.60 495.85,-0.65 502.60,2.20 506.65,6.95 508.00,13.60"/>
    </edge>
    <edge id=":I1_19" function="internal">
        <lane id=":I1_19_0" index="0" speed="10.88" length="27.14" shape="486.40,-1.60 494.45,-0.65 500.20,2.20 503.65,6.95 504.80,13.60"/>
    </edge>
    <edge id=":I2_0" function="internal">
        <lane id=":I2_0_0" index="0" speed="6.51" length="9.03" shape="1492.00,13.60 1491.65,11.15 1490.60,9.40 1488.85,8.35 1486.40,8.00"/>
    </edge>
    <edge id=":I2_1" function="internal">
        <lane id=":I2_1_0" index="0" speed="13.89" length="27.20" shape="1492.00,13.60 1492.00,-13.60"/>
        <lane id=":I2_1_1" index="1" speed="13.89" length="27.20" shape="1495.20,13.60 1495.20,-13.60"/>
    </edge>
    <edge id=":I2_3" function="internal">
        <lane id=":I2_3_0" index="0" speed="11.39" length="29.85" shape="1498.40,13.60 1499.35,4.15 1502.20,-2.60 1506.95,-6.65 1513.60,-8.00"/>
    </edge>
    <edge id=":I2_4" function="internal">
        <lane id=":I2_4_0" index="0" speed="10.88" length="27.14" shape="1498.40,13.60 1499.35,5.55 1502.20,-0.20 1506.95,-3.65 1513.60,-4.80"/>
    </edge>
    <edge id=":I2_5" function="internal">
        <lane id=":I2_5_0" index="0" speed="6.51" length="9.03" shape="1513.60,8.00 1511.15,8.35 1509.40,9.40 1508.35,11.15 1508.00,13.60"/>
    </edge>
    <edge id=":I2_6" function="internal">
        <lane id=":I2_6_0" index="0" speed="13.89" length="27.20" shape="1513.60,8.00 1486.40,8.00"/>
        <lane id=":I2_6_1" index="1" speed="13.89" length="27.20" shape="1513.60,4.80 1486.40,4.80"/>
    </edge>
    <edge id=":I2_8" function="internal">
        <lane id=":I2_8_0" index="0" speed="11.39" length="29.85" shape="1513.60,1.60 1504.15,0.65 1497.40,-2.20 1493.35,-6.95 1492.00,-13.60"/>
    </edge>
    <edge id=":I2_9" function="internal">
        <lane id=":I2_9_0" index="0" speed="10.88" length="27.14" shape="1513.60,1.60 1505.55,0.65 1499.80,-2.20 1496.35,-6.95 1495.20,-13.60"/>
    </edge>
    <edge id=":I2_10" function="internal">
        <lane id=":I2_10_0" index="0" speed="6.51" length="9.03" shape="1508.00,-13.60 1508.35,-11.15 1509.40,-9.40 1511.15,-8.35 1513.60,-8.00"/>
    </edge>
    <edge id=":I2_11" function="internal">
        <lane id=":I2_11_0" index="0" speed="13.89" length="27.20" shape="1508.00,-13.60 1508.00,13.60"/>
        <lane id=":I2_11_1" index="1" speed="13.89" length="27.20" shape="1504.80,-13.60 1504.80,13.60"/>
    </edge>
    <edge id=":I2_13" function="internal">
        <lane id=":I2_13_0" index="0" speed="11.39" length="29.85" shape="1501.60,-13.60 1500.65,-4.15 1497.80,2.60 1493.05,6.65 1486.40,8.00"/>
    </edge>
    <edge id=":I2_14" function="internal">
        <lane id=":I2_14_0" index="0" speed="10.88" length="27.14" shape="1501.60,-13.60 1500.65,-5.55 1497.80,0.20 1493.05,3.65 1486.40,4.80"/>
    </edge>
    <edge id=":I2_15" function="internal">
        <lane id=":I2_15_0" index="0" speed="6.51" length="9.03" shape="1486.40,-8.00 1488.85,-8.35 1490.60,-9.40 1491.65,-11.15 1492.00,-13.60"/>
    </edge>
    <edge id=":I2_16" function="internal">
        <lane id=":I2_16_0" index="0" speed="13.89" length="27.20" shape="1486.40,-8.00 1513.60,-8.00"/>
        <lane id=":I2_16_1" index="1" speed="13.89" length="27.20" shape="1486.40,-4.80 1513.60,-4.80"/>
    </edge>
    <edge id=":I2_18" function="internal">
        <lane id=":I2_18_0" index="0" speed="11.39" length="29.85" shape="1486.40,-1.60 1495.85,-0.65 1502.60,2.20 1506.65,6.95 1508.00,13.60"/>
    </edge>
    <edge id=":I2_19" function="internal">
        <lane id=":I2_19_0" index="0" speed="10.88" length="27.14" shape="1486.40,-1.60 1494.45,-0.65 1500.20,2.20 1503.65,6.95 1504.80,13.60"/>
    </edge>

    <edge id="C1E1" from="C1" to="E1" priority="-1">
        <lane id="C1E1_0" index="0" speed="13.89" length="400.00" shape="0.00,-8.00 400.00,-8.00"/>
        <lane id="C1E1_1" index="1" speed="13.89" length="400.00" shape="0.00,-4.80 400.00,-4.80"/>
        <lane id="C1E1_2" index="2" disallow="all" speed="13.89" length="400.00" shape="0.00,-1.60 400.00,-1.60"/>
    </edge>
    <edge id="C2E7" from="C2" to="E7" priority="-1">
        <lane id="C2E7_0" index="0" speed="13.89" length="400.00" shape="2000.00,8.00 1600.00,8.00"/>
        <lane id="C2E7_1" index="1" speed="13.89" length="400.00" shape="2000.00,4.80 1600.00,4.80"/>
        <lane id="C2E7_2" index="2" disallow="all" speed="13.89" length="400.00" shape="2000.00,1.60 1600.00,1.60"/>
    </edge>
    <edge id="C4E4" from="S1" to="E4" priority="-1">
        <lane id="C4E4_0" index="0" speed="13.89" length="450.00" shape="508.00,-500.00 508.00,-50.00"/>
        <lane id="C4E4_1" index="1" speed="13.89" length="450.00" shape="504.80,-500.00 504.80,-50.00"/>
        <lane id="C4E4_2" index="2" disallow="all" speed="13.89" length="450.00" shape="501.60,-500.00 501.60,-50.00"/>
    </edge>
    <edge id="E1C1" from="E1" to="C1" priority="-1">
        <lane id="E1C1_0" index="0" speed="13.89" length="400.00" shape="400.00,8.00 0.00,8.00"/>
        <lane id="E1C1_1" index="1" speed="13.89" length="400.00" shape="400.00,4.80 0.00,4.80"/>
        <lane id="E1C1_2" index="2" disallow="all" speed="13.89" length="400.00" shape="400.00,1.60 0.00,1.60"/>
    </edge>
    <edge id="E1I1" from="E1" to="I1" priority="-1">
        <lane id="E1I1_0" index="0" speed="13.89" length="86.40" shape="400.00,-8.00 486.40,-8.00"/>
        <lane id="E1I1_1" index="1" speed="13.89" length="86.40" shape="400.00,-4.80 486.40,-4.80"/>
        <lane id="E1I1_2" index="2" speed="13.89" length="86.40" shape="400.00,-1.60 486.40,-1.60"/>
    </edge>
    <edge id="E2I1" from="E2" to="I1" priority="-1">
        <lane id="E2I1_0" index="0" speed="13.89" length="86.40" shape="492.00,100.00 492.00,13.60"/>
        <lane id="E2I1_1" index="1" speed="13.89" length="86.40" shape="495.20,100.00 495.20,13.60"/>
        <lane id="E2I1_2" index="2" speed="13.89" length="86.40" shape="498.40,100.00 498.40,13.60"/>
    </edge>
    <edge id="E2N1" from="E2" to="N1" priority="-1">
        <lane id="E2N1_0" index="0" speed="13.89" length="400.00" shape="508.00,100.00 508.00,500.00"/>
        <lane id="E2N1_1" index="1" speed="13.89" length="400.00" shape="504.80,100.00 504.80,500.00"/>
        <lane id="E2N1_2" index="2" disallow="all" speed="13.89" length="400.00" shape="501.60,100.00 501.60,500.00"/>
    </edge>
    <edge id="E3E5" from="E3" to="E5" priority="-1">
        <lane id="E3E5_0" index="0" speed="13.89" length="800.00" shape="600.00,-8.00 1400.00,-8.00"/>
        <lane id="E3E5_1" index="1" speed="13.89" length="800.00" shape="600.00,-4.80 1400.00,-4.80"/>
        <lane id="E3E5_2" index="2" disallow="all" speed="13.89" length="800.00" shape="600.00,-1.60 1400.00,-1.60"/>
    </edge>
    <edge id="E3I1" from="E3" to="I1" priority="-1">
        <lane id="E3I1_0" index="0" speed="13.89" length="86.40" shape="600.00,8.00 513.60,8.00"/>
        <lane id="E3I1_1" index="1" speed="13.89" length="86.40" shape="600.00,4.80 513.60,4.80"/>
        <lane id="E3I1_2" index="2" speed="13.89" length="86.40" shape="600.00,1.60 513.60,1.60"/>
    </edge>
    <edge id="E4C4" from="E4" to="S1" priority="-1">
        <lane id="E4C4_0" index="0" speed="13.89" length="450.00" shape="492.00,-50.00 492.00,-500.00"/>
        <lane id="E4C4_1" index="1" speed="13.89" length="450.00" shape="495.20,-50.00 495.20,-500.00"/>
        <lane id="E4C4_2" index="2" disallow="all" speed="13.89" length="450.00" shape="498.40,-50.00 498.40,-500.00"/>
    </edge>
    <edge id="E4I1" from="E4" to="I1" priority="-1">
        <lane id="E4I1_0" index="0" speed="13.89" length="36.40" shape="508.00,-50.00 508.00,-13.60"/>
        <lane id="E4I1_1" index="1" speed="13.89" length="36.40" shape="504.80,-50.00 504.80,-13.60"/>
        <lane id="E4I1_2" index="2" speed="13.89" length="36.40" shape="501.60,-50.00 501.60,-13.60"/>
    </edge>
    <edge id="E5E3" from="E5" to="E3" priority="-1">
        <lane id="E5E3_0" index="0" speed="13.89" length="800.00" shape="1400.00,8.00 600.00,8.00"/>
        <lane id="E5E3_1" index="1" speed="13.89" length="800.00" shape="1400.00,4.80 600.00,4.80"/>
        <lane id="E5E3_2" index="2" disallow="all" speed="13.89" length="800.00" shape="1400.00,1.60 600.00,1.60"/>
    </edge>
    <edge id="E5I2" from="E5" to="I2" priority="-1">
        <lane id="E5I2_0" index="0" speed="13.89" length="86.40" shape="1400.00,-8.00 1486.40,-8.00"/>
        <lane id="E5I2_1" index="1" speed="13.89" length="86.40" shape="1400.00,-4.80 1486.40,-4.80"/>
        <lane id="E5I2_2" index="2" speed="13.89" length="86.40" shape="1400.00,-1.60 1486.40,-1.60"/>
    </edge>
    <edge id="E6I2" from="E6" to="I2" priority="-1">
        <lane id="E6I2_0" index="0" speed="13.89" length="86.40" shape="1492.00,100.00 1492.00,13.60"/>
        <lane id="E6I2_1" index="1" speed="13.89" length="86.40" shape="1495.20,100.00 1495.20,13.60"/>
        <lane id="E6I2_2" index="2" speed="13.89" length="86.40" shape="1498.40,100.00 1498.40,13.60"/>
    </edge>
    <edge id="E6N2" from="E6" to="N2" priority="-1">
        <lane id="E6N2_0" index="0" speed="13.89" length="400.00" shape="1508.00,100.00 1508.00,500.00"/>
        <lane id="E6N2_1" index="1" speed="13.89" length="400.00" shape="1504.80,100.00 1504.80,500.00"/>
        <lane id="E6N2_2" index="2" disallow="all" speed="13.89" length="400.00" shape="1501.60,100.00 1501.60,500.00"/>
    </edge>
    <edge id="E7C2" from="E7" to="C2" priority="-1">
        <lane id="E7C2_0" index="0" speed="13.89" length="400.00" shape="1600.00,-8.00 2000.00,-8.00"/>
        <lane id="E7C2_1" index="1" speed="13.89" length="400.00" shape="1600.00,-4.80 2000.00,-4.80"/>
        <lane id="E7C2_2" index="2" disallow="all" speed="13.89" length="400.00" shape="1600.00,-1.60 2000.00,-1.60"/>
    </edge>
    <edge id="E7I2" from="E7" to="I2" priority="-1">
        <lane id="E7I2_0" index="0" speed="13.89" length="86.40" shape="1600.00,8.00 1513.60,8.00"/>
        <lane id="E7I2_1" index="1" speed="13.89" length="86.40" shape="1600.00,4.80 1513.60,4.80"/>
        <lane id="E7I2_2" index="2" speed="13.89" length="86.40" shape="1600.00,1.60 1513.60,1.60"/>
    </edge>
    <edge id="E8I2" from="E8" to="I2" priority="-1">
        <lane id="E8I2_0" index="0" speed="13.89" length="36.40" shape="1508.00,-50.00 1508.00,-13.60"/>
        <lane id="E8I2_1" index="1" speed="13.89" length="36.40" shape="1504.80,-50.00 1504.80,-13.60"/>
        <lane id="E8I2_2" index="2" speed="13.89" length="36.40" shape="1501.60,-50.00 1501.60,-13.60"/>
    </edge>
    <edge id="E8S2" from="E8" to="S2" priority="-1">
        <lane id="E8S2_0" index="0" speed="13.89" length="450.00" shape="1492.00,-50.00 1492.00,-500.00"/>
        <lane id="E8S2_1" index="1" speed="13.89" length="450.00" shape="1495.20,-50.00 1495.20,-500.00"/>
        <lane id="E8S2_2" index="2" disallow="all" speed="13.89" length="450.00" shape="1498.40,-50.00 1498.40,-500.00"/>
    </edge>
    <edge id="I1E1" from="I1" to="E1" priority="-1">
        <lane id="I1E1_0" index="0" speed="13.89" length="86.40" shape="486.40,8.00 400.00,8.00"/>
        <lane id="I1E1_1" index="1" speed="13.89" length="86.40" shape="486.40,4.80 400.00,4.80"/>
        <lane id="I1E1_2" index="2" disallow="all" speed="13.89" length="86.40" shape="486.40,1.60 400.00,1.60"/>
    </edge>
    <edge id="I1E2" from="I1" to="E2" priority="-1">
        <lane id="I1E2_0" index="0" speed="13.89" length="86.40" shape="508.00,13.60 508.00,100.00"/>
        <lane id="I1E2_1" index="1" speed="13.89" length="86.40" shape="504.80,13.60 504.80,100.00"/>
        <lane id="I1E2_2" index="2" disallow="all" speed="13.89" length="86.40" shape="501.60,13.60 501.60,100.00"/>
    </edge>
    <edge id="I1E3" from="I1" to="E3" priority="-1">
        <lane id="I1E3_0" index="0" speed="13.89" length="86.40" shape="513.60,-8.00 600.00,-8.00"/>
        <lane id="I1E3_1" index="1" speed="13.89" length="86.40" shape="513.60,-4.80 600.00,-4.80"/>
        <lane id="I1E3_2" index="2" disallow="all" speed="13.89" length="86.40" shape="513.60,-1.60 600.00,-1.60"/>
    </edge>
    <edge id="I1E4" from="I1" to="E4" priority="-1">
        <lane id="I1E4_0" index="0" speed="13.89" length="36.40" shape="492.00,-13.60 492.00,-50.00"/>
        <lane id="I1E4_1" index="1" speed="13.89" length="36.40" shape="495.20,-13.60 495.20,-50.00"/>
        <lane id="I1E4_2" index="2" disallow="all" speed="13.89" length="36.40" shape="498.40,-13.60 498.40,-50.00"/>
    </edge>
    <edge id="I2E5" from="I2" to="E5" priority="-1">
        <lane id="I2E5_0" index="0" speed="13.89" length="86.40" shape="1486.40,8.00 1400.00,8.00"/>
        <lane id="I2E5_1" index="1" speed="13.89" length="86.40" shape="1486.40,4.80 1400.00,4.80"/>
        <lane id="I2E5_2" index="2" disallow="all" speed="13.89" length="86.40" shape="1486.40,1.60 1400.00,1.60"/>
    </edge>
    <edge id="I2E6" from="I2" to="E6" priority="-1">
        <lane id="I2E6_0" index="0" speed="13.89" length="86.40" shape="1508.00,13.60 1508.00,100.00"/>
        <lane id="I2E6_1" index="1" speed="13.89" length="86.40" shape="1504.80,13.60 1504.80,100.00"/>
        <lane id="I2E6_2" index="2" disallow="all" speed="13.89" length="86.40" shape="1501.60,13.60 1501.60,100.00"/>
    </edge>
    <edge id="I2E7" from="I2" to="E7" priority="-1">
        <lane id="I2E7_0" index="0" speed="13.89" length="86.40" shape="1513.60,-8.00 1600.00,-8.00"/>
        <lane id="I2E7_1" index="1" speed="13.89" length="86.40" shape="1513.60,-4.80 1600.00,-4.80"/>
        <lane id="I2E7_2" index="2" disallow="all" speed="13.89" length="86.40" shape="1513.60,-1.60 1600.00,-1.60"/>
    </edge>
    <edge id="I2E8" from="I2" to="E8" priority="-1">
        <lane id="I2E8_0" index="0" speed="13.89" length="36.40" shape="1492.00,-13.60 1492.00,-50.00"/>
        <lane id="I2E8_1" index="1" speed="13.89" length="36.40" shape="1495.20,-13.60 1495.20,-50.00"/>
        <lane id="I2E8_2" index="2" disallow="all" speed="13.89" length="36.40" shape="1498.40,-13.60 1498.40,-50.00"/>
    </edge>
    <edge id="N1E2" from="N1" to="E2" priority="-1">
        <lane id="N1E2_0" index="0" speed="13.89" length="400.00" shape="492.00,500.00 492.00,100.00"/>
        <lane id="N1E2_1" index="1" speed="13.89" length="400.00" shape="495.20,500.00 495.20,100.00"/>
        <lane id="N1E2_2" index="2" disallow="all" speed="13.89" length="400.00" shape="498.40,500.00 498.40,100.00"/>
    </edge>
    <edge id="N2E6" from="N2" to="E6" priority="-1">
        <lane id="N2E6_0" index="0" speed="13.89" length="400.00" shape="1492.00,500.00 1492.00,100.00"/>
        <lane id="N2E6_1" index="1" speed="13.89" length="400.00" shape="1495.20,500.00 1495.20,100.00"/>
        <lane id="N2E6_2" index="2" disallow="all" speed="13.89" length="400.00" shape="1498.40,500.00 1498.40,100.00"/>
    </edge>
    <edge id="S2E8" from="S2" to="E8" priority="-1">
        <lane id="S2E8_0" index="0" speed="13.89" length="450.00" shape="1508.00,-500.00 1508.00,-50.00"/>
        <lane id="S2E8_1" index="1" speed="13.89" length="450.00" shape="1504.80,-500.00 1504.80,-50.00"/>
        <lane id="S2E8_2" index="2" disallow="all" speed="13.89" length="450.00" shape="1501.60,-500.00 1501.60,-50.00"/>
    </edge>

    <tlLogic id="I1" type="static" programID="0" offset="45">
        <phase duration="20" state="GGGrrrrrrrGGGrrrrrrr"/>
        <phase duration="3"  state="yyyrrrrrrryyyrrrrrrr"/>
        <phase duration="2"  state="rrrrrrrrrrrrrrrrrrrr"/>
        <phase duration="10" state="rrrGGrrrrrrrrGGrrrrr"/>
        <phase duration="3"  state="rrryyrrrrrrrryyrrrrr"/>
        <phase duration="2"  state="rrrrrrrrrrrrrrrrrrrr"/>
        <phase duration="30" state="rrrrrGGGrrrrrrrGGGrr"/>
        <phase duration="3"  state="rrrrryyyrrrrrrryyyrr"/>
        <phase duration="2"  state="rrrrrrrrrrrrrrrrrrrr"/>
        <phase duration="5" state="rrrrrrrrGGrrrrrrrrGG"/>
        <phase duration="3"  state="rrrrrrrryyrrrrrrrryy"/>
        <phase duration="2"  state="rrrrrrrrrrrrrrrrrrrr"/>
    </tlLogic>
    <tlLogic id="I2" type="static" programID="0" offset="60">
        <phase duration="24" state="GGGrrrrrrrGGGrrrrrrr"/>
        <phase duration="3"  state="yyyrrrrrrryyyrrrrrrr"/>
        <phase duration="2"  state="rrrrrrrrrrrrrrrrrrrr"/>
        <phase duration="7"  state="rrrGGrrrrrrrrGGrrrrr"/>
        <phase duration="3"  state="rrryyrrrrrrrryyrrrrr"/>
        <phase duration="2"  state="rrrrrrrrrrrrrrrrrrrr"/>
        <phase duration="20" state="rrrrrGGGrrrrrrrGGGrr"/>
        <phase duration="3"  state="rrrrryyyrrrrrrryyyrr"/>
        <phase duration="2"  state="rrrrrrrrrrrrrrrrrrrr"/>
        <phase duration="14" state="rrrrrrrrGGrrrrrrrrGG"/>
        <phase duration="3"  state="rrrrrrrryyrrrrrrrryy"/>
        <phase duration="2"  state="rrrrrrrrrrrrrrrrrrrr"/>
    </tlLogic>

    <junction id="C1" type="dead_end" x="0.00" y="0.00" incLanes="E1C1_0 E1C1_1 E1C1_2" intLanes="" shape="0.00,-3.20 0.00,9.60 0.00,3.20"/>
    <junction id="C2" type="dead_end" x="2000.00" y="0.00" incLanes="E7C2_0 E7C2_1 E7C2_2" intLanes="" shape="2000.00,3.20 2000.00,-9.60 2000.00,-3.20"/>
    <junction id="E1" type="priority" x="400.00" y="0.00" incLanes="I1E1_0 I1E1_1 I1E1_2 C1E1_0 C1E1_1 C1E1_2" intLanes=":E1_0_0 :E1_0_1 :E1_0_2 :E1_3_0 :E1_3_1 :E1_3_2" shape="400.00,9.60 400.00,-9.60 400.00,9.60">
        <request index="0" response="000000" foes="000000" cont="0"/>
        <request index="1" response="000000" foes="000000" cont="0"/>
        <request index="2" response="000000" foes="000000" cont="0"/>
        <request index="3" response="000000" foes="000000" cont="0"/>
        <request index="4" response="000000" foes="000000" cont="0"/>
        <request index="5" response="000000" foes="000000" cont="0"/>
    </junction>
    <junction id="E2" type="priority" x="500.00" y="100.00" incLanes="N1E2_0 N1E2_1 N1E2_2 I1E2_0 I1E2_1 I1E2_2" intLanes=":E2_0_0 :E2_0_1 :E2_0_2 :E2_3_0 :E2_3_1 :E2_3_2" shape="490.40,100.00 509.60,100.00 490.40,100.00">
        <request index="0" response="000000" foes="000000" cont="0"/>
        <request index="1" response="000000" foes="000000" cont="0"/>
        <request index="2" response="000000" foes="000000" cont="0"/>
        <request index="3" response="000000" foes="000000" cont="0"/>
        <request index="4" response="000000" foes="000000" cont="0"/>
        <request index="5" response="000000" foes="000000" cont="0"/>
    </junction>
    <junction id="E3" type="priority" x="600.00" y="0.00" incLanes="E5E3_0 E5E3_1 E5E3_2 I1E3_0 I1E3_1 I1E3_2" intLanes=":E3_0_0 :E3_0_1 :E3_0_2 :E3_3_0 :E3_3_1" shape="600.00,9.60 600.00,-9.60 600.00,9.60">
        <request index="0" response="00000" foes="00000" cont="0"/>
        <request index="1" response="00000" foes="00000" cont="0"/>
        <request index="2" response="00000" foes="00000" cont="0"/>
        <request index="3" response="00000" foes="00000" cont="0"/>
        <request index="4" response="00000" foes="00000" cont="0"/>
    </junction>
    <junction id="E4" type="priority" x="500.00" y="-50.00" incLanes="I1E4_0 I1E4_1 I1E4_2 C4E4_0 C4E4_1 C4E4_2" intLanes=":E4_0_0 :E4_0_1 :E4_0_2 :E4_3_0 :E4_3_1 :E4_3_2" shape="490.40,-50.00 509.60,-50.00 490.40,-50.00">
        <request index="0" response="000000" foes="000000" cont="0"/>
        <request index="1" response="000000" foes="000000" cont="0"/>
        <request index="2" response="000000" foes="000000" cont="0"/>
        <request index="3" response="000000" foes="000000" cont="0"/>
        <request index="4" response="000000" foes="000000" cont="0"/>
        <request index="5" response="000000" foes="000000" cont="0"/>
    </junction>
    <junction id="E5" type="priority" x="1400.00" y="0.00" incLanes="I2E5_0 I2E5_1 I2E5_2 E3E5_0 E3E5_1 E3E5_2" intLanes=":E5_0_0 :E5_0_1 :E5_2_0 :E5_2_1 :E5_2_2" shape="1400.00,9.60 1400.00,-9.60 1400.00,9.60">
        <request index="0" response="00000" foes="00000" cont="0"/>
        <request index="1" response="00000" foes="00000" cont="0"/>