<?xml version="1.0" encoding="UTF-8"?>

<!-- generated on 07/01/20 11:49:16 by Eclipse SUMO jtrrouter Version 1.6.0
<configuration xmlns:xsi="http://www.w3.org/2001/XMLSchema-instance" xsi:noNamespaceSchemaLocation="http://sumo.dlr.de/xsd/jtrrouterConfiguration.xsd">

    <input>
        <net-file value="G:\My%20Drive\SUMO\0.Thesis\thesis_multipleIntersections\thesis_multiple_500.net.xml"/>
        <route-files value="G:\My%20Drive\SUMO\0.Thesis\thesis_multipleIntersections\thesis_multiple_flow_vc0.9.rou.xml"/>
        <turn-ratio-files value="G:\My%20Drive\SUMO\0.Thesis\thesis_multipleIntersections\thesis.turns.xml"/>
    </input>

    <output>
        <output-file value="G:\My%20Drive\SUMO\0.Thesis\thesis_multipleIntersections\thesis_multiple_flow_vc0.9_new.rou.xml"/>
    </output>

    <processing>
        <no-internal-links value="true"/>
    </processing>

</configuration>
-->

<routes xmlns:xsi="http://www.w3.org/2001/XMLSchema-instance" xsi:noNamespaceSchemaLocation="http://sumo.dlr.de/xsd/routes_file.xsd">
    <vType id="Auto" length="4.00" speedFactor="normc(1.00,0.00)" jmDriveAfterRedTime="0" accel="2.9" decel="7.5"/>
    <vehicle id="Auto_Arterial_EB_I1.0" type="Auto" depart="0.00" departLane="free" color="yellow">
        <route edges="C1E1 E1I1 I1E3 E3E5 E5I2 I2E7 E7C2"/>
    </vehicle>
    <vehicle id="Auto_Arterial_WB_I2.0" type="Auto" depart="0.00" departLane="free" color="yellow">
        <route edges="C2E7 E7I2 I2E5 E5E3 E3I1 I1E1 E1C1"/>
    </vehicle>
    <vehicle id="Auto_CrossStreets_NB_I1.0" type="Auto" depart="0.00" departLane="free" color="yellow">
        <route edges="C4E4 E4I1 I1E2 E2N1"/>
    </vehicle>
    <vehicle id="Auto_CrossStreets_NB_I2.0" type="Auto" depart="0.00" departLane="free" color="yellow">
        <route edges="S2E8 E8I2 I2E6 E6N2"/>
    </vehicle>
    <vehicle id="Auto_CrossStreets_SB_I1.0" type="Auto" depart="0.00" departLane="free" color="yellow">
        <route edges="N1E2 E2I1 I1E4 E4C4"/>
    </vehicle>
    <vehicle id="Auto_CrossStreets_SB_I2.0" type="Auto" depart="0.00" departLane="free" color="yellow">
        <route edges="N2E6 E6I2 I2E8 E8S2"/>
    </vehicle>
    <vType id="Bus" length="8.50" minGap="3.00" speedFactor="normc(1.10,0.00)" vClass="bus" jmDriveAfterRedTime="0" accel="1.2" decel="4.0"/>
    <vehicle id="Bus_19_1.0" type="Bus" depart="0.00" departLane="0" departSpeed="random" color="white">
        <route edges="C1E1 E1I1 I1E3 E3E5 E5I2 I2E7 E7C2"/>
    </vehicle>
    <vehicle id="Bus_19_2.0" type="Bus" depart="0.00" departLane="0" departSpeed="random" color="white">
        <route edges="C2E7 E7I2 I2E5 E5E3 E3I1 I1E1 E1C1"/>
    </vehicle>
    <vehicle id="Bus_2_1.0" type="Bus" depart="0.00" departLane="0" departSpeed="random" color="white">
        <route edges="C1E1 E1I1 I1E3 E3E5 E5I2 I2E7 E7C2"/>
    </vehicle>
    <vehicle id="Bus_2_2.0" type="Bus" depart="0.00" departLane="0" departSpeed="random" color="white">
        <route edges="C2E7 E7I2 I2E5 E5E3 E3I1 I1E1 E1C1"/>
    </vehicle>
    <vehicle id="Bus_G17_1.0" type="Bus" depart="0.00" departLane="0" departSpeed="random" color="white">
        <route edges="C1E1 E1I1 I1E3 E3E5 E5I2 I2E7 E7C2"/>
    </vehicle>
    <vehicle id="Bus_G17_2.0" type="Bus" depart="0.00" departLane="0" departSpeed="random" color="white">
        <route edges="C2E7 E7I2 I2E5 E5E3 E3I1 I1E1 E1C1"/>
    </vehicle>
    <vehicle id="Auto_CrossStreets_NB_I2.1" type="Auto" depart="3.53" departLane="free" color="yellow">
        <route edges="S2E8 E8I2 I2E6 E6N2"/>
    </vehicle>
    <vehicle id="Auto_Arterial_EB_I1.1" type="Auto" depart="3.55" departLane="free" color="yellow">
        <route edges="C1E1 E1I1 I1E3 E3E5 E5I2 I2E7 E7C2"/>
    </vehicle>
    <vehicle id="Auto_Arterial_WB_I2.1" type="Auto" depart="3.91" departLane="free" color="yellow">
        <route edges="C2E7 E7I2 I2E8 E8S2"/>
    </vehicle>
    <vehicle id="Auto_CrossStreets_NB_I1.1" type="Auto" depart="4.66" departLane="free" color="yellow">
        <route edges="C4E4 E4I1 I1E2 E2N1"/>
    </vehicle>
    <vehicle id="Auto_CrossStreets_SB_I2.1" type="Auto" depart="4.91" departLane="free" color="yellow">
        <route edges="N2E6 E6I2 I2E8 E8S2"/>
    </vehicle>
    <vehicle id="Auto_CrossStreets_SB_I1.1" type="Auto" depart="5.37" departLane="free" color="yellow">
        <route edges="N1E2 E2I1 I1E4 E4C4"/>
    </vehicle>
    <vehicle id="Auto_CrossStreets_NB_I2.2" type="Auto" depart="7.05" departLane="free" color="yellow">
        <route edges="S2E8 E8I2 I2E6 E6N2"/>
    </vehicle>
    <vehicle id="Auto_Arterial_EB_I1.2" type="Auto" depart="7.10" departLane="free" color="yellow">
        <route edges="C1E1 E1I1 I1E3 E3E5 E5I2 I2E7 E7C2"/>
    </vehicle>
    <vehicle id="Auto_Arterial_WB_I2.2" type="Auto" depart="7.83" departLane="free" color="yellow">
        <route edges="C2E7 E7I2 I2E5 E5E3 E3I1 I1E1 E1C1"/>
    </vehicle>
    <vehicle id="Auto_CrossStreets_NB_I1.2" type="Auto" depart="9.31" departLane="free" color="yellow">
        <route edges="C4E4 E4I1 I1E2 E2N1"/>
    </vehicle>
    <vehicle id="Auto_CrossStreets_SB_I2.2" type="Auto" depart="9.82" departLane="free" color="yellow">
        <route edges="N2E6 E6I2 I2E8 E8S2"/>
    </vehicle>
    <vehicle id="Auto_CrossStreets_NB_I2.3" type="Auto" depart="10.58" departLane="free" color="yellow">
        <route edges="S2E8 E8I2 I2E6 E6N2"/>
    </vehicle>
    <vehicle id="Auto_Arterial_EB_I1.3" type="Auto" depart="10.65" departLane="free" color="yellow">
        <route edges="C1E1 E1I1 I1E3 E3E5 E5I2 I2E7 E7C2"/>
    </vehicle>
    <vehicle id="Auto_CrossStreets_SB_I1.2" type="Auto" depart="10.73" departLane="free" color="yellow">
        <route edges="N1E2 E2I1 I1E1 E1C1"/>
    </vehicle>
    <vehicle id="Auto_Arterial_WB_I2.3" type="Auto" depart="11.74" departLane="free" color="yellow">
        <route edges="C2E7 E7I2 I2E5 E5E3 E3I1 I1E1 E1C1"/>
    </vehicle>
    <vehicle id="Auto_CrossStreets_NB_I1.3" type="Auto" depart="13.97" departLane="free" color="yellow">
        <route edges="C4E4 E4I1 I1E2 E2N1"/>
    </vehicle>
    <vehicle id="Auto_CrossStreets_NB_I2.4" type="Auto" depart="14.10" departLane="free" color="yellow">
        <route edges="S2E8 E8I2 I2E6 E6N2"/>
    </vehicle>
    <vehicle id="Auto_Arterial_EB_I1.4" type="Auto" depart="14.20" departLane="free" color="yellow">
        <route edges="C1E1 E1I1 I1E4 E4C4"/>
    </vehicle>
    <vehicle id="Auto_CrossStreets_SB_I2.3" type="Auto" depart="14.73" departLane="free" color="yellow">
        <route edges="N2E6 E6I2 I2E5 E5E3 E3I1 I1E4 E4C4"/>
    </vehicle>
    <vehicle id="Auto_Arterial_WB_I2.4" type="Auto" depart="15.65" departLane="free" color="yellow">
        <route edges="C2E7 E7I2 I2E5 E5E3 E3I1 I1E1 E1C1"/>
    </vehicle>
    <vehicle id="Auto_CrossStreets_SB_I1.3" type="Auto" depart="16.10" departLane="free" color="yellow">
        <route edges="N1E2 E2I1 I1E4 E4C4"/>
    </vehicle>
    <vehicle id="Auto_CrossStreets_NB_I2.5" type="Auto" depart="17.63" departLane="free" color="yellow">
        <route edges="S2E8 E8I2 I2E6 E6N2"/>
    </vehicle>
    <vehicle id="Auto_Arterial_EB_I1.5" type="Auto" depart="17.75" departLane="free" color="yellow">
        <route edges="C1E1 E1I1 I1E3 E3E5 E5I2 I2E6 E6N2"/>
    </vehicle>
    <vehicle id="Auto_CrossStreets_NB_I1.4" type="Auto" depart="18.63" departLane="free" color="yellow">
        <route edges="C4E4 E4I1 I1E2 E2N1"/>
    </vehicle>
    <vehicle id="Auto_Arterial_WB_I2.5" type="Auto" depart="19.57" departLane="free" color="yellow">
        <route edges="C2E7 E7I2 I2E5 E5E3 E3I1 I1E4 E4C4"/>
    </vehicle>
    <vehicle id="Auto_CrossStreets_SB_I2.4" type="Auto" depart="19.64" departLane="free" color="yellow">
        <route edges="N2E6 E6I2 I2E8 E8S2"/>
    </vehicle>
    <vehicle id="Auto_CrossStreets_NB_I2.6" type="Auto" depart="21.16" departLane="free" color="yellow">
        <route edges="S2E8 E8I2 I2E6 E6N2"/>
    </vehicle>
    <vehicle id="Auto_Arterial_EB_I1.6" type="Auto" depart="21.30" departLane="free" color="yellow">
        <route edges="C1E1 E1I1 I1E3 E3E5 E5I2 I2E7 E7C2"/>
    </vehicle>
    <vehicle id="Auto_CrossStreets_SB_I1.4" type="Auto" depart="21.46" departLane="free" color="yellow">
        <route edges="N1E2 E2I1 I1E4 E4C4"/>
    </vehicle>
    <vehicle id="Auto_CrossStreets_NB_I1.5" type="Auto" depart="23.29" departLane="free" color="yellow">
        <route edges="C4E4 E4I1 I1E2 E2N1"/>
    </vehicle>
    <vehicle id="Auto_Arterial_WB_I2.6" type="Auto" depart="23.48" departLane="free" color="yellow">
        <route edges="C2E7 E7I2 I2E8 E8S2"/>
    </vehicle>
    <vehicle id="Auto_CrossStreets_SB_I2.5" type="Auto" depart="24.56" departLane="free" color="yellow">
        <route edges="N2E6 E6I2 I2E7 E7C2"/>
    </vehicle>
    <vehicle id="Auto_CrossStreets_NB_I2.7" type="Auto" depart="24.68" departLane="free" color="yellow">
        <route edges="S2E8 E8I2 I2E6 E6N2"/>
    </vehicle>
    <vehicle id="Auto_Arterial_EB_I1.7" type="Auto" depart="24.85" departLane="free" color="yellow">
        <route edges="C1E1 E1I1 I1E3 E3E5 E5I2 I2E7 E7C2"/>
    </vehicle>
    <vehicle id="Auto_CrossStreets_SB_I1.5" type="Auto" depart="26.83" departLane="free" color="yellow">
        <route edges="N1E2 E2I1 I1E3 E3E5 E5I2 I2E7 E7C2"/>
    </vehicle>
    <vehicle id="Auto_Arterial_WB_I2.7" type="Auto" depart="27.39" departLane="free" color="yellow">
        <route edges="C2E7 E7I2 I2E8 E8S2"/>
    </vehicle>
    <vehicle id="Auto_CrossStreets_NB_I1.6" type="Auto" depart="27.94" departLane="free" color="yellow">
        <route edges="C4E4 E4I1 I1E2 E2N1"/>
    </vehicle>
    <vehicle id="Auto_CrossStreets_NB_I2.8" type="Auto" depart="28.21" departLane="free" color="yellow">
        <route edges="S2E8 E8I2 I2E6 E6N2"/>
    </vehicle>
    <vehicle id="Auto_Arterial_EB_I1.8" type="Auto" depart="28.40" departLane="free" color="yellow">
        <route edges="C1E1 E1I1 I1E3 E3E5 E5I2 I2E7 E7C2"/>
    </vehicle>
    <vehicle id="Auto_CrossStreets_SB_I2.6" type="Auto" depart="29.47" departLane="free" color="yellow">
        <route edges="N2E6 E6I2 I2E5 E5E3 E3I1 I1E1 E1C1"/>
    </vehicle>
    <vehicle id="Auto_Arterial_WB_I2.8" type="Auto" depart="31.30" departLane="free" color="yellow">
        <route edges="C2E7 E7I2 I2E5 E5E3 E3I1 I1E1 E1C1"/>
    </vehicle>
    <vehicle id="Auto_CrossStreets_NB_I2.9" type="Auto" depart="31.73" departLane="free" color="yellow">
        <route edges="S2E8 E8I2 I2E6 E6N2"/>
    </vehicle>
    <vehicle id="Auto_Arterial_EB_I1.9" type="Auto" depart="31.95" departLane="free" color="yellow">
        <route edges="C1E1 E1I1 I1E3 E3E5 E5I2 I2E7 E7C2"/>
    </vehicle>
    <vehicle id="Auto_CrossStreets_SB_I1.6" type="Auto" depart="32.19" departLane="free" color="yellow">
        <route edges="N1E2 E2I1 I1E4 E4C4"/>
    </vehicle>
    <vehicle id="Auto_CrossStreets_NB_I1.7" type="Auto" depart="32.60" departLane="free" color="yellow">
        <route edges="C4E4 E4I1 I1E2 E2N1"/>
    </vehicle>
    <vehicle id="Auto_CrossStreets_SB_I2.7" type="Auto" depart="34.38" departLane="free" color="yellow">
        <route edges="N2E6 E6I2 I2E8 E8S2"/>
    </vehicle>
    <vehicle id="Auto_Arterial_WB_I2.9" type="Auto" depart="35.22" departLane="free" color="yellow">
        <route edges="C2E7 E7I2 I2E5 E5E3 E3I1 I1E1 E1C1"/>
    </vehicle>
    <vehicle id="Auto_CrossStreets_NB_I2.10" type="Auto" depart="35.26" departLane="free" color="yellow">
        <route edges="S2E8 E8I2 I2E7 E7C2"/>
    </vehicle>
    <vehicle id="Auto_Arterial_EB_I1.10" type="Auto" depart="35.50" departLane="free" color="yellow">
        <route edges="C1E1 E1I1 I1E3 E3E5 E5I2 I2E7 E7C2"/>
    </vehicle>
    <vehicle id="Auto_CrossStreets_NB_I1.8" type="Auto" depart="37.26" departLane="free" color="yellow">
        <route edges="C4E4 E4I1 I1E3 E3E5 E5I2 I2E7 E7C2"/>
    </vehicle>
    <vehicle id="Auto_CrossStreets_SB_I1.7" type="Auto" depart="37.56" departLane="free" color="yellow">
        <route edges="N1E2 E2I1 I1E4 E4C4"/>
    </vehicle>
    <vehicle id="Auto_CrossStreets_NB_I2.11" type="Auto" depart="38.79" departLane="free" color="yellow">
        <route edges="S2E8 E8I2 I2E6 E6N2"/>
    </vehicle>
    <vehicle id="Auto_Arterial_EB_I1.11" type="Auto" depart="39.05" departLane="free" color="yellow">
        <route edges="C1E1 E1I1 I1E4 E4C4"/>
    </vehicle>
    <vehicle id="Auto_Arterial_WB_I2.10" type="Auto" depart="39.13" departLane="free" color="yellow">
        <route edges="C2E7 E7I2 I2E5 E5E3 E3I1 I1E1 E1C1"/>
    </vehicle>
    <vehicle id="Auto_CrossStreets_SB_I2.8" type="Auto" depart="39.29" departLane="free" color="yellow">
        <route edges="N2E6 E6I2 I2E8 E8S2"/>
    </vehicle>
    <vehicle id="Auto_CrossStreets_NB_I1.9" type="Auto" depart="41.91" departLane="free" color="yellow">
        <route edges="C4E4 E4I1 I1E1 E1C1"/>
    </vehicle>
    <vehicle id="Auto_CrossStreets_NB_I2.12" type="Auto" depart="42.31" departLane="free" color="yellow">
        <route edges="S2E8 E8I2 I2E6 E6N2"/>
    </vehicle>
    <vehicle id="Auto_Arterial_EB_I1.12" type="Auto" depart="42.60" departLane="free" color="yellow">
        <route edges="C1E1 E1I1 I1E3 E3E5 E5I2 I2E7 E7C2"/>
    </vehicle>
    <vehicle id="Auto_CrossStreets_SB_I1.8" type="Auto" depart="42.92" departLane="free" color="yellow">
        <route edges="N1E2 E2I1 I1E4 E4C4"/>
    </vehicle>
    <vehicle id="Auto_Arterial_WB_I2.11" type="Auto" depart="43.04" departLane="free" color="yellow">
        <route edges="C2E7 E7I2 I2E5 E5E3 E3I1 I1E4 E4C4"/>
    </vehicle>
    <vehicle id="Auto_CrossStreets_SB_I2.9" type="Auto" depart="44.20" departLane="free" color="yellow">
        <route edges="N2E6 E6I2 I2E5 E5E3 E3I1 I1E1 E1C1"/>
    </vehicle>
    <vehicle id="Auto_CrossStreets_NB_I2.13" type="Auto" depart="45.84" departLane="free" color="yellow">
        <route edges="S2E8 E8I2 I2E6 E6N2"/>
    </vehicle>
    <vehicle id="Auto_Arterial_EB_I1.13" type="Auto" depart="46.15" departLane="free" color="yellow">
        <route edges="C1E1 E1I1 I1E2 E2N1"/>
    </vehicle>
    <vehicle id="Auto_CrossStreets_NB_I1.10" type="Auto" depart="46.57" departLane="free" color="yellow">
        <route edges="C4E4 E4I1 I1E2 E2N1"/>
    </vehicle>
    <vehicle id="Auto_Arterial_WB_I2.12" type="Auto" depart="46.96" departLane="free" color="yellow">
        <route edges="C2E7 E7I2 I2E6 E6N2"/>
    </vehicle>
    <vehicle id="Auto_CrossStreets_SB_I1.9" type="Auto" depart="48.29" departLane="free" color="yellow">
        <route edges="N1E2 E2I1 I1E4 E4C4"/>
    </vehicle>
    <vehicle id="Auto_CrossStreets_SB_I2.10" type="Auto" depart="49.11" departLane="free" color="yellow">
        <route edges="N2E6 E6I2 I2E8 E8S2"/>
    </vehicle>
    <vehicle id="Auto_CrossStreets_NB_I2.14" type="Auto" depart="49.36" departLane="free" color="yellow">
        <route edges="S2E8 E8I2 I2E7 E7C2"/>
    </vehicle>
    <vehicle id="Auto_Arterial_EB_I1.14" type="Auto" depart="49.70" departLane="free" color="yellow">
        <route edges="C1E1 E1I1 I1E3 E3E5 E5I2 I2E7 E7C2"/>
    </vehicle>
    <vehicle id="Auto_Arterial_WB_I2.13" type="Auto" depart="50.87" departLane="free" color="yellow">
        <route edges="C2E7 E7I2 I2E5 E5E3 E3I1 I1E1 E1C1"/>
    </vehicle>
    <vehicle id="Auto_CrossStreets_NB_I1.11" type="Auto" depart="51.23" departLane="free" color="yellow">
        <route edges="C4E4 E4I1 I1E2 E2N1"/>
    </vehicle>
    <vehicle id="Auto_CrossStreets_NB_I2.15" type="Auto" depart="52.89" departLane="free" color="yellow">
        <route edges="S2E8 E8I2 I2E7 E7C2"/>
    </vehicle>
    <vehicle id="Auto_Arterial_EB_I1.15" type="Auto" depart="53.25" departLane="free" color="yellow">
        <route edges="C1E1 E1I1 I1E3 E3E5 E5I2 I2E7 E7C2"/>
    </vehicle>
    <vehicle id="Auto_CrossStreets_SB_I1.10" type="Auto" depart="53.65" departLane="free" color="yellow">
        <route edges="N1E2 E2I1 I1E4 E4C4"/>
    </vehicle>
    <vehicle id="Auto_CrossStreets_SB_I2.11" type="Auto" depart="54.02" departLane="free" color="yellow">
        <route edges="N2E6 E6I2 I2E8 E8S2"/>
    </vehicle>
    <vehicle id="Auto_Arterial_WB_I2.14" type="Auto" depart="54.78" departLane="free" color="yellow">
        <route edges="C2E7 E7I2 I2E5 E5E3 E3I1 I1E1 E1C1"/>
    </vehicle>
    <vehicle id="Auto_CrossStreets_NB_I1.12" type="Auto" depart="55.88" departLane="free" color="yellow">
        <route edges="C4E4 E4I1 I1E1 E1C1"/>
    </vehicle>
    <vehicle id="Auto_CrossStreets_NB_I2.16" type="Auto" depart="56.42" departLane="free" color="yellow">
        <route edges="S2E8 E8I2 I2E6 E6N2"/>
    </vehicle>
    <vehicle id="Auto_Arterial_EB_I1.16" type="Auto" depart="56.80" departLane="free" color="yellow">
        <route edges="C1E1 E1I1 I1E4 E4C4"/>
    </vehicle>
    <vehicle id="Auto_Arterial_WB_I2.15" type="Auto" depart="58.70" departLane="free" color="yellow">
        <route edges="C2E7 E7I2 I2E8 E8S2"/>
    </vehicle>
    <vehicle id="Auto_CrossStreets_SB_I2.12" type="Auto" depart="58.93" departLane="free" color="yellow">
        <route edges="N2E6 E6I2 I2E8 E8S2"/>
    </vehicle>
    <vehicle id="Auto_CrossStreets_SB_I1.11" type="Auto" depart="59.02" departLane="free" color="yellow">
        <route edges="N1E2 E2I1 I1E4 E4C4"/>
    </vehicle>
    <vehicle id="Auto_CrossStreets_NB_I2.17" type="Auto" depart="59.94" departLane="free" color="yellow">
        <route edges="S2E8 E8I2 I2E6 E6N2"/>
    </vehicle>
    <vehicle id="Auto_Arterial_EB_I1.17" type="Auto" depart="60.35" departLane="free" color="yellow">
        <route edges="C1E1 E1I1 I1E3 E3E5 E5I2 I2E7 E7C2"/>
    </vehicle>
    <vehicle id="Auto_CrossStreets_NB_I1.13" type="Auto" depart="60.54" departLane="free" color="yellow">
        <route edges="C4E4 E4I1 I1E1 E1C1"/>
    </vehicle>
    <vehicle id="Auto_Arterial_WB_I2.16" type="Auto" depart="62.61" departLane="free" color="yellow">
        <route edges="C2E7 E7I2 I2E5 E5E3 E3I1 I1E1 E1C1"/>
    </vehicle>
    <vehicle id="Auto_CrossStreets_NB_I2.18" type="Auto" depart="63.47" departLane="free" color="yellow">
        <route edges="S2E8 E8I2 I2E6 E6N2"/>
    </vehicle>
    <vehicle id="Auto_CrossStreets_SB_I2.13" type="Auto" depart="63.84" departLane="free" color="yellow">
        <route edges="N2E6 E6I2 I2E5 E5E3 E3I1 I1E4 E4C4"/>
    </vehicle>
    <vehicle id="Auto_Arterial_EB_I1.18" type="Auto" depart="63.90" departLane="free" color="yellow">
        <route edges="C1E1 E1I1 I1E3 E3E5 E5I2 I2E7 E7C2"/>
    </vehicle>
    <vehicle id="Auto_CrossStreets_SB_I1.12" type="Auto" depart="64.38" departLane="free" color="yellow">
        <route edges="N1E2 E2I1 I1E4 E4C4"/>
    </vehicle>
    <vehicle id="Auto_CrossStreets_NB_I1.14" type="Auto" depart="65.20" departLane="free" color="yellow">
        <route edges="C4E4 E4I1 I1E2 E2N1"/>
    </vehicle>
    <vehicle id="Auto_Arterial_WB_I2.17" type="Auto" depart="66.52" departLane="free" color="yellow">
        <route edges="C2E7 E7I2 I2E5 E5E3 E3I1 I1E1 E1C1"/>
    </vehicle>
    <vehicle id="Auto_CrossStreets_NB_I2.19" type="Auto" depart="66.99" departLane="free" color="yellow">
        <route edges="S2E8 E8I2 I2E7 E7C2"/>
    </vehicle>
    <vehicle id="Auto_Arterial_EB_I1.19" type="Auto" depart="67.45" departLane="free" color="yellow">
        <route edges="C1E1 E1I1 I1E3 E3E5 E5I2 I2E7 E7C2"/>
    </vehicle>
    <vehicle id="Auto_CrossStreets_SB_I2.14" type="Auto" depart="68.75" departLane="free" color="yellow">
        <route edges="N2E6 E6I2 I2E8 E8S2"/>
    </vehicle>
    <vehicle id="Auto_CrossStreets_SB_I1.13" type="Auto" depart="69.75" departLane="free" color="yellow">
        <route edges="N1E2 E2I1 I1E4 E4C4"/>
    </vehicle>
    <vehicle id="Auto_CrossStreets_NB_I1.15" type="Auto" depart="69.86" departLane="free" color="yellow">
        <route edges="C4E4 E4I1 I1E3 E3E5 E5I2 I2E7 E7C2"/>
    </vehicle>
    <vehicle id="Auto_Arterial_WB_I2.18" type="Auto" depart="70.43" departLane="free" color="yellow">
        <route edges="C2E7 E7I2 I2E5 E5E3 E3I1 I1E1 E1C1"/>
    </vehicle>
    <vehicle id="Auto_CrossStreets_NB_I2.20" type="Auto" depart="70.52" departLane="free" color="yellow">
        <route edges="S2E8 E8I2 I2E6 E6N2"/>
    </vehicle>
    <vehicle id="Auto_Arterial_EB_I1.20" type="Auto" depart="71.00" departLane="free" color="yellow">
        <route edges="C1E1 E1I1 I1E3 E3E5 E5I2 I2E7 E7C2"/>
    </vehicle>
    <vehicle id="Auto_CrossStreets_SB_I2.15" type="Auto" depart="73.67" departLane="free" color="yellow">
        <route edges="N2E6 E6I2 I2E8 E8S2"/>
    </vehicle>
    <vehicle id="Auto_CrossStreets_NB_I2.21" type="Auto" depart="74.05" departLane="free" color="yellow">
        <route edges="S2E8 E8I2 I2E6 E6N2"/>
    </vehicle>
    <vehicle id="Auto_Arterial_WB_I2.19" type="Auto" depart="74.35" departLane="free" color="yellow">
        <route edges="C2E7 E7I2 I2E5 E5E3 E3I1 I1E1 E1C1"/>
    </vehicle>
    <vehicle id="Auto_CrossStreets_NB_I1.16" type="Auto" depart="74.51" departLane="free" color="yellow">
        <route edges="C4E4 E4I1 I1E1 E1C1"/>
    </vehicle>
    <vehicle id="Auto_Arterial_EB_I1.21" type="Auto" depart="74.55" departLane="free" color="yellow">
        <route edges="C1E1 E1I1 I1E3 E3E5 E5I2 I2E7 E7C2"/>
    </vehicle>
    <vehicle id="Auto_CrossStreets_SB_I1.14" type="Auto" depart="75.11" departLane="free" color="yellow">
        <route edges="N1E2 E2I1 I1E4 E4C4"/>
    </vehicle>
    <vehicle id="Auto_CrossStreets_NB_I2.22" type="Auto" depart="77.57" departLane="free" color="yellow">
        <route edges="S2E8 E8I2 I2E6 E6N2"/>
    </vehicle>
    <vehicle id="Auto_Arterial_EB_I1.22" type="Auto" depart="78.10" departLane="free" color="yellow">
        <route edges="C1E1 E1I1 I1E3 E3E5 E5I2 I2E7 E7C2"/>
    </vehicle>
    <vehicle id="Auto_Arterial_WB_I2.20" type="Auto" depart="78.26" departLane="free" color="yellow">
        <route edges="C2E7 E7I2 I2E5 E5E3 E3I1 I1E4 E4C4"/>
    </vehicle>
    <vehicle id="Auto_CrossStreets_SB_I2.16" type="Auto" depart="78.58" departLane="free" color="yellow">
        <route edges="N2E6 E6I2 I2E8 E8S2"/>
    </vehicle>
    <vehicle id="Auto_CrossStreets_NB_I1.17" type="Auto" depart="79.17" departLane="free" color="yellow">
        <route edges="C4E4 E4I1 I1E2 E2N1"/>
    </vehicle>
    <vehicle id="Auto_CrossStreets_SB_I1.15" type="Auto" depart="80.48" departLane="free" color="yellow">
        <route edges="N1E2 E2I1 I1E4 E4C4"/>
    </vehicle>
    <vehicle id="Auto_CrossStreets_NB_I2.23" type="Auto" depart="81.10" departLane="free" color="yellow">
        <route edges="S2E8 E8I2 I2E5 E5E3 E3I1 I1E4 E4C4"/>
    </vehicle>
    <vehicle id="Auto_Arterial_EB_I1.23" type="Auto" depart="81.65" departLane="free" color="yellow">
        <route edges="C1E1 E1I1 I1E3 E3E5 E5I2 I2E7 E7C2"/>
    </vehicle>
    <vehicle id="Auto_Arterial_WB_I2.21" type="Auto" depart="82.17" departLane="free" color="yellow">
        <route edges="C2E7 E7I2 I2E8 E8S2"/>
    </vehicle>
    <vehicle id="Auto_CrossStreets_SB_I2.17" type="Auto" depart="83.49" departLane="free" color="yellow">
        <route edges="N2E6 E6I2 I2E5 E5E3 E3I1 I1E1 E1C1"/>
    </vehicle>
    <vehicle id="Auto_CrossStreets_NB_I1.18" type="Auto" depart="83.83" departLane="free" color="yellow">
        <route edges="C4E4 E4I1 I1E2 E2N1"/>
    </vehicle>
    <vehicle id="Auto_CrossStreets_NB_I2.24" type="Auto" depart="84.62" departLane="free" color="yellow">
        <route edges="S2E8 E8I2 I2E6 E6N2"/>
    </vehicle>
    <vehicle id="Auto_Arterial_EB_I1.24" type="Auto" depart="85.20" departLane="free" color="yellow">
        <route edges="C1E1 E1I1 I1E3 E3E5 E5I2 I2E7 E7C2"/>
    </vehicle>
    <vehicle id="Auto_CrossStreets_SB_I1.16" type="Auto" depart="85.84" departLane="free" color="yellow">
        <route edges="N1E2 E2I1 I1E4 E4C4"/>
    </vehicle>
    <vehicle id="Auto_Arterial_WB_I2.22" type="Auto" depart="86.09" departLane="free" color="yellow">
        <route edges="C2E7 E7I2 I2E5 E5E3 E3I1 I1E1 E1C1"/>
    </vehicle>
    <vehicle id="Auto_CrossStreets_NB_I2.25" type="Auto" depart="88.15" departLane="free" color="yellow">
        <route edges="S2E8 E8I2 I2E6 E6N2"/>
    </vehicle>
    <vehicle id="Auto_CrossStreets_SB_I2.18" type="Auto" depart="88.40" departLane="free" color="yellow">
        <route edges="N2E6 E6I2 I2E8 E8S2"/>
    </vehicle>
    <vehicle id="Auto_CrossStreets_NB_I1.19" type="Auto" depart="88.48" departLane="free" color="yellow">
        <route edges="C4E4 E4I1 I1E3 E3E5 E5I2 I2E7 E7C2"/>
    </vehicle>
    <vehicle id="Auto_Arterial_EB_I1.25" type="Auto" depart="88.75" departLane="free" color="yellow">
        <route edges="C1E1 E1I1 I1E3 E3E5 E5I2 I2E7 E7C2"/>
    </vehicle>
    <vehicle id="Auto_Arterial_WB_I2.23" type="Auto" depart="90.00" departLane="free" color="yellow">
        <route edges="C2E7 E7I2 I2E5 E5E3 E3I1 I1E1 E1C1"/>
    </vehicle>
    <vehicle id="Auto_CrossStreets_SB_I1.17" type="Auto" depart="91.21" departLane="free" color="yellow">
        <route edges="N1E2 E2I1 I1E3 E3E5 E5I2 I2E7 E7C2"/>
    </vehicle>
    <vehicle id="Auto_CrossStreets_NB_I2.26" type="Auto" depart="91.68" departLane="free" color="yellow">
        <route edges="S2E8 E8I2 I2E7 E7C2"/>
    </vehicle>
    <vehicle id="Auto_Arterial_EB_I1.26" type="Auto" depart="92.30" departLane="free" color="yellow">
        <route edges="C1E1 E1I1 I1E3 E3E5 E5I2 I2E7 E7C2"/>
    </vehicle>
    <vehicle id="Auto_CrossStreets_NB_I1.20" type="Auto" depart="93.14" departLane="free" color="yellow">
        <route edges="C4E4 E4I1 I1E2 E2N1"/>
    </vehicle>
    <vehicle id="Auto_CrossStreets_SB_I2.19" type="Auto" depart="93.31" departLane="free" color="yellow">
        <route edges="N2E6 E6I2 I2E8 E8S2"/>
    </vehicle>
    <vehicle id="Auto_Arterial_WB_I2.24" type="Auto" depart="93.91" departLane="free" color="yellow">
        <route edges="C2E7 E7I2 I2E5 E5E3 E3I1 I1E2 E2N1"/>
    </vehicle>
    <vehicle id="Auto_CrossStreets_NB_I2.27" type="Auto" depart="95.20" departLane="free" color="yellow">
        <route edges="S2E8 E8I2 I2E6 E6N2"/>
    </vehicle>
    <vehicle id="Auto_Arterial_EB_I1.27" type="Auto" depart="95.85" departLane="free" color="yellow">
        <route edges="C1E1 E1I1 I1E3 E3E5 E5I2 I2E7 E7C2"/>
    </vehicle>
    <vehicle id="Auto_CrossStreets_SB_I1.18" type="Auto" depart="96.57" departLane="free" color="yellow">
        <route edges="N1E2 E2I1 I1E4 E4C4"/>
    </vehicle>
    <vehicle id="Auto_CrossStreets_NB_I1.21" type="Auto" depart="97.80" departLane="free" color="yellow">
        <route edges="C4E4 E4I1 I1E3 E3E5 E5I2 I2E7 E7C2"/>
    </vehicle>
    <vehicle id="Auto_Arterial_WB_I2.25" type="Auto" depart="97.83" departLane="free" color="yellow">
        <route edges="C2E7 E7I2 I2E8 E8S2"/>
    </vehicle>
    <vehicle id="Auto_CrossStreets_SB_I2.20" type="Auto" depart="98.22" departLane="free" color="yellow">
        <route edges="N2E6 E6I2 I2E5 E5E3 E3I1 I1E4 E4C4"/>
    </vehicle>
    <vehicle id="Auto_CrossStreets_NB_I2.28" type="Auto" depart="98.73" departLane="free" color="yellow">
        <route edges="S2E8 E8I2 I2E6 E6N2"/>
    </vehicle>
    <vehicle id="Auto_Arterial_EB_I1.28" type="Auto" depart="99.40" departLane="free" color="yellow">
        <route edges="C1E1 E1I1 I1E3 E3E5 E5I2 I2E7 E7C2"/>
    </vehicle>
    <vehicle id="Auto_Arterial_WB_I2.26" type="Auto" depart="101.74" departLane="free" color="yellow">
        <route edges="C2E7 E7I2 I2E5 E5E3 E3I1 I1E1 E1C1"/>
    </vehicle>
    <vehicle id="Auto_CrossStreets_SB_I1.19" type="Auto" depart="101.94" departLane="free" color="yellow">
        <route edges="N1E2 E2I1 I1E4 E4C4"/>
    </vehicle>
    <vehicle id="Auto_CrossStreets_NB_I2.29" type="Auto" depart="102.25" departLane="free" color="yellow">
        <route edges="S2E8 E8I2 I2E6 E6N2"/>
    </vehicle>
    <vehicle id="Auto_CrossStreets_NB_I1.22" type="Auto" depart="102.45" departLane="free" color="yellow">
        <route edges="C4E4 E4I1 I1E2 E2N1"/>
    </vehicle>
    <vehicle id="Auto_Arterial_EB_I1.29" type="Auto" depart="102.95" departLane="free" color="yellow">
        <route edges="C1E1 E1I1 I1E3 E3E5 E5I2 I2E6 E6N2"/>
    </vehicle>
    <vehicle id="Auto_CrossStreets_SB_I2.21" type="Auto" depart="103.13" departLane="free" color="yellow">
        <route edges="N2E6 E6I2 I2E8 E8S2"/>
    </vehicle>
    <vehicle id="Auto_Arterial_WB_I2.27" type="Auto" depart="105.65" departLane="free" color="yellow">
        <route edges="C2E7 E7I2 I2E5 E5E3 E3I1 I1E1 E1C1"/>
    </vehicle>
    <vehicle id="Auto_CrossStreets_NB_I2.30" type="Auto" depart="105.78" departLane="free" color="yellow">
        <route edges="S2E8 E8I2 I2E6 E6N2"/>
    </vehicle>
    <vehicle id="Auto_Arterial_EB_I1.30" type="Auto" depart="106.50" departLane="free" color="yellow">
        <route edges="C1E1 E1I1 I1E3 E3E5 E5I2 I2E7 E7C2"/>
    </vehicle>
    <vehicle id="Auto_CrossStreets_NB_I1.23" type="Auto" depart="107.11" departLane="free" color="yellow">
        <route edges="C4E4 E4I1 I1E2 E2N1"/>
    </vehicle>
    <vehicle id="Auto_CrossStreets_SB_I1.20" type="Auto" depart="107.30" departLane="free" color="yellow">
        <route edges="N1E2 E2I1 I1E3 E3E5 E5I2 I2E6 E6N2"/>
    </vehicle>
    <vehicle id="Auto_CrossStreets_SB_I2.22" type="Auto" depart="108.04" departLane="free" color="yellow">
        <route edges="N2E6 E6I2 I2E8 E8S2"/>
    </vehicle>
    <vehicle id="Auto_CrossStreets_NB_I2.31" type="Auto" depart="109.31" departLane="free" color="yellow">
        <route edges="S2E8 E8I2 I2E6 E6N2"/>
    </vehicle>
    <vehicle id="Auto_Arterial_WB_I2.28" type="Auto" depart="109.56" departLane="free" color="yellow">
        <route edges="C2E7 E7I2 I2E5 E5E3 E3I1 I1E1 E1C1"/>
    </vehicle>
    <vehicle id="Auto_Arterial_EB_I1.31" type="Auto" depart="110.05" departLane="free" color="yellow">
        <route edges="C1E1 E1I1 I1E3 E3E5 E5I2 I2E7 E7C2"/>
    </vehicle>
    <vehicle id="Auto_CrossStreets_NB_I1.24" type="Auto" depart="111.77" departLane="free" color="yellow">
        <route edges="C4E4 E4I1 I1E2 E2N1"/>
    </vehicle>