<?xml version="1.0" encoding="UTF-8"?>

<!-- generated on 04/02/20 07:44:51 by Eclipse SUMO netedit Version 1.5.0
<configuration xmlns:xsi="http://www.w3.org/2001/XMLSchema-instance" xsi:noNamespaceSchemaLocation="http://sumo.dlr.de/xsd/netconvertConfiguration.xsd">

    <input>
        <sumo-net-file value="G:\My%20Drive\SUMO\0.Thesis\thesis.net.xml"/>
    </input>

    <output>
        <output-file value="G:\My%20Drive\SUMO\0.Thesis\thesis.net.xml"/>
    </output>

    <processing>
        <geometry.min-radius.fix.railways value="false"/>
        <geometry.max-grade.fix value="false"/>
        <offset.disable-normalization value="true"/>
        <lefthand value="false"/>
    </processing>

    <junctions>
        <no-turnarounds value="true"/>
        <junctions.corner-detail value="5"/>
        <junctions.limit-turn-speed value="5.5"/>
        <rectangular-lane-cut value="false"/>
    </junctions>

    <pedestrian>
        <walkingareas value="false"/>
    </pedestrian>

    <report>
        <aggregate-warnings value="5"/>
    </report>

</configuration>
-->

<net version="1.3" junctionCornerDetail="5" limitTurnSpeed="5.50" xmlns:xsi="http://www.w3.org/2001/XMLSchema-instance" xsi:noNamespaceSchemaLocation="http://sumo.dlr.de/xsd/net_file.xsd">

    <location netOffset="0.00,0.00" convBoundary="0.00,-100.00,900.00,100.00" origBoundary="-10000000000.00,-10000000000.00,10000000000.00,10000000000.00" projParameter="!"/>

    <edge id=":J1_0" function="internal">
        <lane id=":J1_0_0" index="0" speed="8.67" length="16.85" shape="198.40,13.60 197.65,9.75 195.40,7.00 191.65,5.35 186.40,4.80"/>
    </edge>
    <edge id=":J1_1" function="internal">
        <lane id=":J1_1_0" index="0" speed="13.89" length="27.20" shape="198.40,13.60 198.40,-13.60"/>
    </edge>
    <edge id=":J1_2" function="internal">
        <lane id=":J1_2_0" index="0" speed="8.67" length="16.85" shape="213.60,4.80 208.35,5.35 204.60,7.00 202.35,9.75 201.60,13.60"/>
    </edge>
    <edge id=":J1_3" function="internal">
        <lane id=":J1_3_0" index="0" speed="13.89" length="27.20" shape="213.60,4.80 186.40,4.80"/>
        <lane id=":J1_3_1" index="1" speed="13.89" length="27.20" shape="213.60,1.60 186.40,1.60"/>
    </edge>
    <edge id=":J1_5" function="internal">
        <lane id=":J1_5_0" index="0" speed="10.36" length="19.82" shape="213.60,1.60 206.95,0.65 202.20,-2.20 199.35,-6.95 199.06,-8.95"/>
    </edge>
    <edge id=":J1_12" function="internal">
        <lane id=":J1_12_0" index="0" speed="10.36" length="4.70" shape="199.06,-8.95 198.40,-13.60"/>
    </edge>
    <edge id=":J1_6" function="internal">
        <lane id=":J1_6_0" index="0" speed="8.67" length="16.85" shape="201.60,-13.60 202.35,-9.75 204.60,-7.00 208.35,-5.35 213.60,-4.80"/>
    </edge>
    <edge id=":J1_7" function="internal">
        <lane id=":J1_7_0" index="0" speed="13.89" length="27.20" shape="201.60,-13.60 201.60,13.60"/>
    </edge>
    <edge id=":J1_8" function="internal">
        <lane id=":J1_8_0" index="0" speed="10.36" length="7.98" shape="201.60,-13.60 200.65,-6.95 200.00,-5.87"/>
    </edge>
    <edge id=":J1_13" function="internal">
        <lane id=":J1_13_0" index="0" speed="10.36" length="16.53" shape="200.00,-5.87 197.80,-2.20 193.05,0.65 186.40,1.60"/>
    </edge>
    <edge id=":J1_9" function="internal">
        <lane id=":J1_9_0" index="0" speed="8.67" length="16.85" shape="186.40,-4.80 191.65,-5.35 195.40,-7.00 197.65,-9.75 198.40,-13.60"/>
    </edge>
    <edge id=":J1_10" function="internal">
        <lane id=":J1_10_0" index="0" speed="13.89" length="27.20" shape="186.40,-4.80 213.60,-4.80"/>
    </edge>
    <edge id=":J1_11" function="internal">
        <lane id=":J1_11_0" index="0" speed="10.36" length="19.82" shape="186.40,-1.60 193.05,-0.65 197.80,2.20 200.65,6.95 200.94,8.95"/>
    </edge>
    <edge id=":J1_14" function="internal">
        <lane id=":J1_14_0" index="0" speed="10.36" length="4.70" shape="200.94,8.95 201.60,13.60"/>
    </edge>
    <edge id=":J2_0" function="internal">
        <lane id=":J2_0_0" index="0" speed="9.26" length="19.35" shape="398.40,13.60 397.65,8.35 395.40,4.60 391.65,2.35 386.40,1.60"/>
    </edge>
    <edge id=":J2_1" function="internal">
        <lane id=":J2_1_0" index="0" speed="13.89" length="27.20" shape="398.40,13.60 398.40,-13.60"/>
    </edge>
    <edge id=":J2_2" function="internal">
        <lane id=":J2_2_0" index="0" speed="10.36" length="7.98" shape="398.40,13.60 399.35,6.95 400.00,5.87"/>
    </edge>
    <edge id=":J2_14" function="internal">
        <lane id=":J2_14_0" index="0" speed="10.36" length="16.53" shape="400.00,5.87 402.20,2.20 406.95,-0.65 413.60,-1.60"/>
    </edge>
    <edge id=":J2_3" function="internal">
        <lane id=":J2_3_0" index="0" speed="8.10" length="14.57" shape="413.60,8.00 408.35,8.35 404.60,9.40 402.35,11.15 401.60,13.60"/>
    </edge>
    <edge id=":J2_4" function="internal">
        <lane id=":J2_4_0" index="0" speed="13.89" length="28.18" shape="413.60,8.00 405.42,7.00 400.00,4.80 394.58,2.60 386.40,1.60"/>
    </edge>
    <edge id=":J2_5" function="internal">
        <lane id=":J2_5_0" index="0" speed="10.36" length="9.13" shape="413.60,1.60 406.95,0.65 404.88,-0.59"/>
    </edge>
    <edge id=":J2_15" function="internal">
        <lane id=":J2_15_0" index="0" speed="10.36" length="15.38" shape="404.88,-0.59 402.20,-2.20 399.35,-6.95 398.40,-13.60"/>
    </edge>
    <edge id=":J2_6" function="internal">
        <lane id=":J2_6_0" index="0" speed="8.67" length="16.85" shape="401.60,-13.60 402.35,-9.75 404.60,-7.00 408.35,-5.35 413.60,-4.80"/>
    </edge>
    <edge id=":J2_7" function="internal">
        <lane id=":J2_7_0" index="0" speed="13.89" length="27.20" shape="401.60,-13.60 401.60,13.60"/>
    </edge>
    <edge id=":J2_8" function="internal">
        <lane id=":J2_8_0" index="0" speed="7.33" length="11.73" shape="386.40,-8.00 390.25,-8.35 393.00,-9.40 394.65,-11.15 395.20,-13.60"/>
    </edge>
    <edge id=":J2_9" function="internal">
        <lane id=":J2_9_0" index="0" speed="13.89" length="27.28" shape="386.40,-8.00 413.60,-8.00"/>
        <lane id=":J2_9_1" index="1" speed="13.89" length="27.28" shape="386.40,-4.80 413.60,-4.80"/>
        <lane id=":J2_9_2" index="2" speed="13.89" length="27.28" shape="386.40,-4.80 394.50,-4.30 400.00,-3.20 405.50,-2.10 413.60,-1.60"/>
    </edge>
    <edge id=":J2_12" function="internal">
        <lane id=":J2_12_0" index="0" speed="10.88" length="16.20" shape="386.40,-1.60 394.45,-0.65 400.20,2.20 401.18,3.55"/>
    </edge>
    <edge id=":J2_13" function="internal">
        <lane id=":J2_13_0" index="0" speed="10.36" length="12.14" shape="386.40,-1.60 393.05,-0.65 397.70,2.14"/>
    </edge>
    <edge id=":J2_16" function="internal">
        <lane id=":J2_16_0" index="0" speed="10.88" length="10.95" shape="401.18,3.55 403.65,6.95 404.80,13.60"/>
    </edge>
    <edge id=":J2_17" function="internal">
        <lane id=":J2_17_0" index="0" speed="10.36" length="12.38" shape="397.70,2.14 397.80,2.20 400.65,6.95 401.60,13.60"/>
    </edge>
    <edge id=":J3_0" function="internal">
        <lane id=":J3_0_0" index="0" speed="7.33" length="11.73" shape="545.20,13.60 544.65,11.15 543.00,9.40 540.25,8.35 536.40,8.00"/>
    </edge>
    <edge id=":J3_1" function="internal">
        <lane id=":J3_1_0" index="0" speed="13.89" length="27.20" shape="545.20,13.60 545.20,-13.60"/>
        <lane id=":J3_1_1" index="1" speed="13.89" length="27.20" shape="548.40,13.60 548.40,-13.60"/>
    </edge>
    <edge id=":J3_3" function="internal">
        <lane id=":J3_3_0" index="0" speed="10.36" length="24.51" shape="548.40,13.60 549.35,6.95 552.20,2.20 556.95,-0.65 563.60,-1.60"/>
    </edge>
    <edge id=":J3_4" function="internal">
        <lane id=":J3_4_0" index="0" speed="8.00" length="14.19" shape="563.60,4.80 559.75,5.35 557.00,7.00 555.35,9.75 554.80,13.60"/>
    </edge>
    <edge id=":J3_5" function="internal">
        <lane id=":J3_5_0" index="0" speed="13.89" length="27.32" shape="563.60,4.80 555.50,5.30 550.00,6.40 544.50,7.50 536.40,8.00"/>
        <lane id=":J3_5_1" index="1" speed="13.89" length="27.32" shape="563.60,1.60 536.40,1.60"/>
    </edge>
    <edge id=":J3_7" function="internal">
        <lane id=":J3_7_0" index="0" speed="10.36" length="24.51" shape="563.60,1.60 556.95,0.65 552.20,-2.20 549.35,-6.95 548.40,-13.60"/>
    </edge>
    <edge id=":J3_8" function="internal">
        <lane id=":J3_8_0" index="0" speed="8.00" length="14.19" shape="554.80,-13.60 555.35,-9.75 557.00,-7.00 559.75,-5.35 563.60,-4.80"/>
    </edge>
    <edge id=":J3_9" function="internal">
        <lane id=":J3_9_0" index="0" speed="13.89" length="27.20" shape="554.80,-13.60 554.80,13.60"/>
        <lane id=":J3_9_1" index="1" speed="13.89" length="27.20" shape="551.60,-13.60 551.60,13.60"/>
    </edge>
    <edge id=":J3_11" function="internal">
        <lane id=":J3_11_0" index="0" speed="10.36" length="24.51" shape="551.60,-13.60 550.65,-6.95 547.80,-2.20 543.05,0.65 536.40,1.60"/>
    </edge>
    <edge id=":J3_12" function="internal">
        <lane id=":J3_12_0" index="0" speed="8.00" length="14.19" shape="536.40,-4.80 540.25,-5.35 543.00,-7.00 544.65,-9.75 545.20,-13.60"/>
    </edge>
    <edge id=":J3_13" function="internal">
        <lane id=":J3_13_0" index="0" speed="13.89" length="27.20" shape="536.40,-4.80 563.60,-4.80"/>
        <lane id=":J3_13_1" index="1" speed="13.89" length="27.20" shape="536.40,-1.60 563.60,-1.60"/>
    </edge>
    <edge id=":J3_15" function="internal">
        <lane id=":J3_15_0" index="0" speed="10.36" length="24.51" shape="536.40,-1.60 543.05,-0.65 547.80,2.20 550.65,6.95 551.60,13.60"/>
    </edge>
    <edge id=":J4_0" function="internal">
        <lane id=":J4_0_0" index="0" speed="8.67" length="16.85" shape="745.20,13.60 744.65,8.35 743.00,4.60 740.25,2.35 736.40,1.60"/>
    </edge>
    <edge id=":J4_1" function="internal">
        <lane id=":J4_1_0" index="0" speed="13.89" length="27.32" shape="745.20,13.60 745.20,-13.60"/>
        <lane id=":J4_1_1" index="1" speed="13.89" length="27.32" shape="745.20,13.60 745.70,5.50 746.80,0.00 747.90,-5.50 748.40,-13.60"/>
    </edge>
    <edge id=":J4_3" function="internal">
        <lane id=":J4_3_0" index="0" speed="10.36" length="9.13" shape="748.40,13.60 749.35,6.95 750.59,4.88"/>
    </edge>
    <edge id=":J4_16" function="internal">
        <lane id=":J4_16_0" index="0" speed="10.36" length="15.38" shape="750.59,4.88 752.20,2.20 756.95,-0.65 763.60,-1.60"/>
    </edge>
    <edge id=":J4_4" function="internal">
        <lane id=":J4_4_0" index="0" speed="8.67" length="16.85" shape="763.60,4.80 758.35,5.35 754.60,7.00 752.35,9.75 751.60,13.60"/>
    </edge>
    <edge id=":J4_5" function="internal">
        <lane id=":J4_5_0" index="0" speed="13.89" length="27.20" shape="763.60,4.80 736.40,4.80"/>
        <lane id=":J4_5_1" index="1" speed="13.89" length="27.20" shape="763.60,1.60 736.40,1.60"/>
    </edge>
    <edge id=":J4_7" function="internal">
        <lane id=":J4_7_0" index="0" speed="10.36" length="7.98" shape="763.60,1.60 756.95,0.65 755.87,0.00"/>
    </edge>
    <edge id=":J4_17" function="internal">
        <lane id=":J4_17_0" index="0" speed="10.36" length="16.53" shape="755.87,0.00 752.20,-2.20 749.35,-6.95 748.40,-13.60"/>
    </edge>
    <edge id=":J4_8" function="internal">
        <lane id=":J4_8_0" index="0" speed="8.00" length="14.19" shape="754.80,-13.60 755.35,-9.75 757.00,-7.00 759.75,-5.35 763.60,-4.80"/>
    </edge>
    <edge id=":J4_9" function="internal">
        <lane id=":J4_9_0" index="0" speed="13.89" length="27.32" shape="754.80,-13.60 754.80,13.60"/>
        <lane id=":J4_9_1" index="1" speed="13.89" length="27.32" shape="754.80,-13.60 754.30,-5.50 753.20,-0.00 752.10,5.50 751.60,13.60"/>
    </edge>
    <edge id=":J4_11" function="internal">
        <lane id=":J4_11_0" index="0" speed="10.36" length="9.13" shape="751.60,-13.60 750.65,-6.95 749.41,-4.88"/>
    </edge>
    <edge id=":J4_18" function="internal">
        <lane id=":J4_18_0" index="0" speed="10.36" length="15.38" shape="749.41,-4.88 747.80,-2.20 743.05,0.65 736.40,1.60"/>
    </edge>
    <edge id=":J4_12" function="internal">
        <lane id=":J4_12_0" index="0" speed="8.67" length="16.85" shape="736.40,-4.80 741.65,-5.35 745.40,-7.00 747.65,-9.75 748.40,-13.60"/>
    </edge>
    <edge id=":J4_13" function="internal">
        <lane id=":J4_13_0" index="0" speed="13.89" length="27.20" shape="736.40,-4.80 763.60,-4.80"/>
        <lane id=":J4_13_1" index="1" speed="13.89" length="27.20" shape="736.40,-1.60 763.60,-1.60"/>
    </edge>
    <edge id=":J4_15" function="internal">
        <lane id=":J4_15_0" index="0" speed="10.36" length="7.98" shape="736.40,-1.60 743.05,-0.65 744.13,-0.00"/>
    </edge>
    <edge id=":J4_19" function="internal">
        <lane id=":J4_19_0" index="0" speed="10.36" length="16.53" shape="744.13,-0.00 747.80,2.20 750.65,6.95 751.60,13.60"/>
    </edge>
    <edge id=":gneJ12_0" function="internal">
        <lane id=":gneJ12_0_0" index="0" speed="13.89" length="1.13" shape="370.00,-8.00 370.00,-8.00"/>
        <lane id=":gneJ12_0_1" index="1" speed="13.89" length="1.13" shape="370.00,-4.80 370.00,-4.80"/>
        <lane id=":gneJ12_0_2" index="2" speed="13.89" length="1.13" shape="370.00,-4.80 370.00,-1.60"/>
    </edge>
    <edge id=":gneJ13_0" function="internal">
        <lane id=":gneJ13_0_0" index="0" speed="13.89" length="3.20" shape="230.00,1.60 230.00,4.80"/>
    </edge>
    <edge id=":gneJ14_0" function="internal">
        <lane id=":gneJ14_0_0" index="0" speed="13.89" length="0.10" shape="170.00,-4.80 170.00,-4.80"/>
        <lane id=":gneJ14_0_1" index="1" speed="13.89" length="0.10" shape="170.00,-1.60 170.00,-1.60"/>
    </edge>
    <edge id=":gneJ15_0" function="internal">
        <lane id=":gneJ15_0_0" index="0" speed="13.89" length="0.10" shape="208.00,-30.00 208.00,-30.00"/>
        <lane id=":gneJ15_0_1" index="1" speed="13.89" length="0.10" shape="204.80,-30.00 204.80,-30.00"/>
        <lane id=":gneJ15_0_2" index="2" speed="13.89" length="0.10" shape="201.60,-30.00 201.60,-30.00"/>
    </edge>
    <edge id=":gneJ16_0" function="internal">
        <lane id=":gneJ16_0_0" index="0" speed="13.89" length="0.10" shape="192.00,-31.00 192.00,-31.00"/>
        <lane id=":gneJ16_0_1" index="1" speed="13.89" length="0.10" shape="195.20,-31.00 195.20,-31.00"/>
        <lane id=":gneJ16_0_2" index="2" speed="13.89" length="0.10" shape="198.40,-31.00 198.40,-31.00"/>
    </edge>

    <edge id="C1C2" from="C1" to="gneJ14" priority="-1" length="210.00">
        <lane id="C1C2_0" index="0" speed="13.89" length="210.00" shape="0.00,-8.00 170.00,-8.00"/>
        <lane id="C1C2_1" index="1" speed="13.89" length="210.00" shape="0.00,-4.80 170.00,-4.80"/>
        <lane id="C1C2_2" index="2" speed="13.89" length="210.00" shape="0.00,-1.60 170.00,-1.60"/>
    </edge>
    <edge id="C1C2.166" from="gneJ14" to="J1" priority="-1">
        <lane id="C1C2.166_0" index="0" speed="13.89" length="16.40" shape="170.00,-8.00 186.40,-8.00"/>
        <lane id="C1C2.166_1" index="1" speed="13.89" length="16.40" shape="170.00,-4.80 186.40,-4.80"/>
        <lane id="C1C2.166_2" index="2" speed="13.89" length="16.40" shape="170.00,-1.60 186.40,-1.60"/>
    </edge>
    <edge id="C2C1" from="J1" to="C1" priority="-1" length="210.00">
        <lane id="C2C1_0" index="0" speed="13.89" length="210.00" shape="186.40,8.00 0.00,8.00"/>
        <lane id="C2C1_1" index="1" speed="13.89" length="210.00" shape="186.40,4.80 0.00,4.80"/>
        <lane id="C2C1_2" index="2" speed="13.89" length="210.00" shape="186.40,1.60 0.00,1.60"/>
    </edge>
    <edge id="C2C3" from="J1" to="gneJ12" priority="-1" length="200.00">
        <lane id="C2C3_0" index="0" speed="13.89" length="200.00" shape="213.60,-8.00 370.00,-8.00"/>
        <lane id="C2C3_1" index="1" speed="13.89" length="200.00" shape="213.60,-4.80 370.00,-4.80"/>
        <lane id="C2C3_2" index="2" disallow="all" speed="13.89" length="200.00" shape="213.60,-1.60 370.00,-1.60"/>
    </edge>
    <edge id="C2C3.154" from="gneJ12" to="J2" priority="-1">
        <lane id="C2C3.154_0" index="0" speed="13.89" length="16.40" shape="370.00,-8.00 386.40,-8.00"/>
        <lane id="C2C3.154_1" index="1" speed="13.89" length="16.40" shape="370.00,-4.80 386.40,-4.80"/>
        <lane id="C2C3.154_2" index="2" speed="13.89" length="16.40" shape="370.00,-1.60 386.40,-1.60"/>
    </edge>
    <edge id="C2N1" from="J1" to="N1" priority="-1" length="100.00">
        <lane id="C2N1_0" index="0" speed="13.89" length="100.00" shape="208.00,13.60 208.00,100.00"/>
        <lane id="C2N1_1" index="1" speed="13.89" length="100.00" shape="204.80,13.60 204.80,100.00"/>
        <lane id="C2N1_2" index="2" speed="13.89" length="100.00" shape="201.60,13.60 201.60,100.00"/>
    </edge>
    <edge id="C2S1" from="J1" to="gneJ16" priority="-1" length="100.00">
        <lane id="C2S1_0" index="0" speed="13.89" length="100.00" shape="192.00,-13.60 192.00,-31.00"/>
        <lane id="C2S1_1" index="1" speed="13.89" length="100.00" shape="195.20,-13.60 195.20,-31.00"/>
        <lane id="C2S1_2" index="2" speed="13.89" length="100.00" shape="198.40,-13.60 198.40,-31.00"/>
    </edge>
    <edge id="C2S1.29" from="gneJ16" to="S1" priority="-1">
        <lane id="C2S1.29_0" index="0" speed="13.89" length="69.00" shape="192.00,-31.00 192.00,-100.00"/>
        <lane id="C2S1.29_1" index="1" speed="13.89" length="69.00" shape="195.20,-31.00 195.20,-100.00"/>
        <lane id="C2S1.29_2" index="2" speed="13.89" length="69.00" shape="198.40,-31.00 198.40,-100.00"/>
    </edge>
    <edge id="C3C2" from="J2" to="gneJ13" priority="-1" length="200.00">
        <lane id="C3C2_0" index="0" speed="13.89" length="200.00" shape="386.40,8.00 230.00,8.00"/>
        <lane id="C3C2_1" index="1" speed="13.89" length="200.00" shape="386.40,4.80 230.00,4.80"/>
        <lane id="C3C2_2" index="2" speed="13.89" length="200.00" shape="386.40,1.60 230.00,1.60"/>
    </edge>
    <edge id="C3C2.152" from="gneJ13" to="J1" priority="-1">
        <lane id="C3C2.152_0" index="0" speed="13.89" length="16.40" shape="230.00,8.00 213.60,8.00"/>
        <lane id="C3C2.152_1" index="1" speed="13.89" length="16.40" shape="230.00,4.80 213.60,4.80"/>
        <lane id="C3C2.152_2" index="2" speed="13.89" length="16.40" shape="230.00,1.60 213.60,1.60"/>
    </edge>
    <edge id="C3C4" from="J2" to="J3" priority="-1" length="85.00">
        <lane id="C3C4_0" index="0" speed="13.89" length="85.00" shape="413.60,-8.00 536.40,-8.00"/>
        <lane id="C3C4_1" index="1" speed="13.89" length="85.00" shape="413.60,-4.80 536.40,-4.80"/>
        <lane id="C3C4_2" index="2" speed="13.89" length="85.00" shape="413.60,-1.60 536.40,-1.60"/>
    </edge>
    <edge id="C3N2" from="J2" to="N2" priority="-1" length="100.00">
        <lane id="C3N2_0" index="0" speed="13.89" length="100.00" shape="408.00,13.60 408.00,100.00"/>
        <lane id="C3N2_1" index="1" speed="13.89" length="100.00" shape="404.80,13.60 404.80,100.00"/>
        <lane id="C3N2_2" index="2" speed="13.89" length="100.00" shape="401.60,13.60 401.60,100.00"/>
    </edge>
    <edge id="C3S2" from="J2" to="S2" priority="-1" length="100.00">
        <lane id="C3S2_0" index="0" speed="13.89" length="100.00" shape="392.00,-13.60 392.00,-100.00"/>
        <lane id="C3S2_1" index="1" speed="13.89" length="100.00" shape="395.20,-13.60 395.20,-100.00"/>
        <lane id="C3S2_2" index="2" speed="13.89" length="100.00" shape="398.40,-13.60 398.40,-100.00"/>
    </edge>
    <edge id="C4C3" from="J3" to="J2" priority="-1" length="85.00">
        <lane id="C4C3_0" index="0" speed="13.89" length="85.00" shape="536.40,8.00 413.60,8.00"/>
        <lane id="C4C3_1" index="1" speed="13.89" length="85.00" shape="536.40,4.80 413.60,4.80"/>
        <lane id="C4C3_2" index="2" speed="13.89" length="85.00" shape="536.40,1.60 413.60,1.60"/>
    </edge>
    <edge id="C4C5" from="J3" to="J4" priority="-1" length="80.00">
        <lane id="C4C5_0" index="0" speed="13.89" length="80.00" shape="563.60,-8.00 736.40,-8.00"/>
        <lane id="C4C5_1" index="1" speed="13.89" length="80.00" shape="563.60,-4.80 736.40,-4.80"/>
        <lane id="C4C5_2" index="2" speed="13.89" length="80.00" shape="563.60,-1.60 736.40,-1.60"/>
    </edge>
    <edge id="C4N3" from="J3" to="N3" priority="-1" length="100.00">
        <lane id="C4N3_0" index="0" speed="13.89" length="100.00" shape="558.00,13.60 558.00,100.00"/>
        <lane id="C4N3_1" index="1" speed="13.89" length="100.00" shape="554.80,13.60 554.80,100.00"/>
        <lane id="C4N3_2" index="2" speed="13.89" length="100.00" shape="551.60,13.60 551.60,100.00"/>
    </edge>
    <edge id="C4S3" from="J3" to="S3" priority="-1" length="100.00">
        <lane id="C4S3_0" index="0" speed="13.89" length="100.00" shape="542.00,-13.60 542.00,-100.00"/>
        <lane id="C4S3_1" index="1" speed="13.89" length="100.00" shape="545.20,-13.60 545.20,-100.00"/>
        <lane id="C4S3_2" index="2" speed="13.89" length="100.00" shape="548.40,-13.60 548.40,-100.00"/>
    </edge>
    <edge id="C5C4" from="J4" to="J3" priority="-1" length="80.00">
        <lane id="C5C4_0" index="0" speed="13.89" length="80.00" shape="736.40,8.00 563.60,8.00"/>
        <lane id="C5C4_1" index="1" speed="13.89" length="80.00" shape="736.40,4.80 563.60,4.80"/>
        <lane id="C5C4_2" index="2" speed="13.89" length="80.00" shape="736.40,1.60 563.60,1.60"/>
    </edge>
    <edge id="C5C6" from="J4" to="C6" priority="-1" length="100.00">
        <lane id="C5C6_0" index="0" speed="13.89" length="100.00" shape="763.60,-8.00 900.00,-8.00"/>
        <lane id="C5C6_1" index="1" speed="13.89" length="100.00" shape="763.60,-4.80 900.00,-4.80"/>
        <lane id="C5C6_2" index="2" speed="13.89" length="100.00" shape="763.60,-1.60 900.00,-1.60"/>
    </edge>
    <edge id="C5N4" from="J4" to="N4" priority="-1" length="100.00">
        <lane id="C5N4_0" index="0" speed="13.89" length="100.00" shape="758.00,13.60 758.00,100.00"/>
        <lane id="C5N4_1" index="1" speed="13.89" length="100.00" shape="754.80,13.60 754.80,100.00"/>
        <lane id="C5N4_2" index="2" speed="13.89" length="100.00" shape="751.60,13.60 751.60,100.00"/>
    </edge>
    <edge id="C5S4" from="J4" to="S4" priority="-1" length="100.00">
        <lane id="C5S4_0" index="0" speed="13.89" length="100.00" shape="742.00,-13.60 742.00,-100.00"/>
        <lane id="C5S4_1" index="1" speed="13.89" length="100.00" shape="745.20,-13.60 745.20,-100.00"/>
        <lane id="C5S4_2" index="2" speed="13.89" length="100.00" shape="748.40,-13.60 748.40,-100.00"/>
    </edge>
    <edge id="C6C5" from="C6" to="J4" priority="-1" length="100.00">
        <lane id="C6C5_0" index="0" speed="13.89" length="100.00" shape="900.00,8.00 763.60,8.00"/>
        <lane id="C6C5_1" index="1" speed="13.89" length="100.00" shape="900.00,4.80 763.60,4.80"/>
        <lane id="C6C5_2" index="2" speed="13.89" length="100.00" shape="900.00,1.60 763.60,1.60"/>
    </edge>
    <edge id="N1C2" from="N1" to="J1" priority="-1">
        <lane id="N1C2_0" index="0" speed="13.89" length="86.40" shape="192.00,100.00 192.00,13.60"/>
        <lane id="N1C2_1" index="1" speed="13.89" length="86.40" shape="195.20,100.00 195.20,13.60"/>
        <lane id="N1C2_2" index="2" speed="13.89" length="86.40" shape="198.40,100.00 198.40,13.60"/>
    </edge>
    <edge id="N2C3" from="N2" to="J2" priority="-1">
        <lane id="N2C3_0" index="0" speed="13.89" length="86.40" shape="392.00,100.00 392.00,13.60"/>
        <lane id="N2C3_1" index="1" speed="13.89" length="86.40" shape="395.20,100.00 395.20,13.60"/>
        <lane id="N2C3_2" index="2" speed="13.89" length="86.40" shape="398.40,100.00 398.40,13.60"/>
    </edge>
    <edge id="N3C4" from="N3" to="J3" priority="-1">
        <lane id="N3C4_0" index="0" speed="13.89" length="86.40" shape="542.00,100.00 542.00,13.60"/>
        <lane id="N3C4_1" index="1" speed="13.89" length="86.40" shape="545.20,100.00 545.20,13.60"/>
        <lane id="N3C4_2" index="2" speed="13.89" length="86.40" shape="548.40,100.00 548.40,13.60"/>
    </edge>
    <edge id="N4C5" from="N4" to="J4" priority="-1">
        <lane id="N4C5_0" index="0" speed="13.89" length="86.40" shape="742.00,100.00 742.00,13.60"/>
        <lane id="N4C5_1" index="1" speed="13.89" length="86.40" shape="745.20,100.00 745.20,13.60"/>
        <lane id="N4C5_2" index="2" speed="13.89" length="86.40" shape="748.40,100.00 748.40,13.60"/>
    </edge>
    <edge id="S1C2" from="S1" to="gneJ15" priority="-1">
        <lane id="S1C2_0" index="0" speed="13.89" length="70.00" shape="208.00,-100.00 208.00,-30.00"/>
        <lane id="S1C2_1" index="1" speed="13.89" length="70.00" shape="204.80,-100.00 204.80,-30.00"/>
        <lane id="S1C2_2" index="2" speed="13.89" length="70.00" shape="201.60,-100.00 201.60,-30.00"/>
    </edge>
    <edge id="S1C2.66" from="gneJ15" to="J1" priority="-1">
        <lane id="S1C2.66_0" index="0" speed="13.89" length="16.40" shape="208.00,-30.00 208.00,-13.60"/>
        <lane id="S1C2.66_1" index="1" speed="13.89" length="16.40" shape="204.80,-30.00 204.80,-13.60"/>
        <lane id="S1C2.66_2" index="2" speed="13.89" length="16.40" shape="201.60,-30.00 201.60,-13.60"/>
    </edge>
    <edge id="S2C3" from="S2" to="J2" priority="-1">
        <lane id="S2C3_0" index="0" speed="13.89" length="86.40" shape="408.00,-100.00 408.00,-13.60"/>
        <lane id="S2C3_1" index="1" speed="13.89" length="86.40" shape="404.80,-100.00 404.80,-13.60"/>
        <lane id="S2C3_2" index="2" speed="13.89" length="86.40" shape="401.60,-100.00 401.60,-13.60"/>
    </edge>
    <edge id="S3C4" from="S3" to="J3" priority="-1">
        <lane id="S3C4_0" index="0" speed="13.89" length="86.40" shape="558.00,-100.00 558.00,-13.60"/>
        <lane id="S3C4_1" index="1" speed="13.89" length="86.40" shape="554.80,-100.00 554.80,-13.60"/>
        <lane id="S3C4_2" index="2" speed="13.89" length="86.40" shape="551.60,-100.00 551.60,-13.60"/>
    </edge>
    <edge id="S4C5" from="S4" to="J4" priority="-1">
        <lane id="S4C5_0" index="0" speed="13.89" length="86.40" shape="758.00,-100.00 758.00,-13.60"/>
        <lane id="S4C5_1" index="1" speed="13.89" length="86.40" shape="754.80,-100.00 754.80,-13.60"/>
        <lane id="S4C5_2" index="2" speed="13.89" length="86.40" shape="751.60,-100.00 751.60,-13.60"/>
    </edge>

    <tlLogic id="J1" type="static" programID="0" offset="60">
        <phase duration="55" state="rrrGGGgrrrGGGg"/>
        <phase duration="3"  state="rrryyyyrrryyyy"/>
        <phase duration="2"  state="rrrrrrrrrrrrrr"/>
        <phase duration="55" state="GGgrrrrGGgrrrr"/>
        <phase duration="3"  state="yyyrrrryyyrrrr"/>
        <phase duration="2"  state="rrrrrrrrrrrrrr"/>
    </tlLogic>
    <tlLogic id="J2" type="static" programID="0" offset="55">
        <phase duration="38" state="GGgrrrGGrrrrrr"/>
        <phase duration="3"  state="yyyrrryyrrrrrr"/>
        <phase duration="37" state="rrrGGgrrGGGGgg"/>
        <phase duration="3"  state="rrryygrryyyygg"/>
        <phase duration="6"  state="rrrrrGrrrrrrGG"/>
        <phase duration="3"  state="rrrrryrrrrrryy"/>
    </tlLogic>
    <tlLogic id="J3" type="static" programID="0" offset="0">
        <phase duration="45" state="rrrrGGGGrrrrGGGG"/>
        <phase duration="3"  state="rrrryyyyrrrryyyy"/>
        <phase duration="2"  state="rrrrrrrrrrrrrrrr"/>
        <phase duration="65" state="GGGGrrrrGGGGrrrr"/>
        <phase duration="3"  state="yyyyrrrryyyyrrrr"/>
        <phase duration="2"  state="rrrrrrrrrrrrrrrr"/>
    </tlLogic>
    <tlLogic id="J4" type="static" programID="0" offset="0">
        <phase duration="38" state="GGGgrrrrGGGgrrrr"/>
        <phase duration="3"  state="yyygrrrryyygrrrr"/>
        <phase duration="6"  state="rrrGrrrrrrrGrrrr"/>
        <phase duration="3"  state="rrryrrrrrrryrrrr"/>
        <phase duration="37" state="rrrrGGGgrrrrGGGg"/>
        <phase duration="3"  state="rrrryyyyrrrryyyy"/>
    </tlLogic>

    <junction id="C1" type="dead_end" x="0.00" y="0.00" incLanes="C2C1_0 C2C1_1 C2C1_2" intLanes="" shape="0.00,0.00 0.00,9.60 0.00,0.00"/>
    <junction id="C6" type="dead_end" x="900.00" y="0.00" incLanes="C5C6_0 C5C6_1 C5C6_2" intLanes="" shape="900.00,0.00 900.00,-9.60 900.00,0.00"/>
    <junction id="J1" type="traffic_light" x="200.00" y="0.00" incLanes="N1C2_0 N1C2_1 N1C2_2 C3C2.152_0 C3C2.152_1 C3C2.152_2 S1C2.66_0 S1C2.66_1 S1C2.66_2 C1C2.166_0 C1C2.166_1 C1C2.166_2" intLanes=":J1_0_0 :J1_1_0 :J1_2_0 :J1_3_0 :J1_3_1 :J1_12_0 :J1_6_0 :J1_7_0 :J1_13_0 :J1_9_0 :J1_10_0 :J1_14_0" shape="190.40,13.60 209.60,13.60 210.04,11.38 210.60,10.60 211.38,10.04 212.38,9.71 213.60,9.60 213.60,-9.60 211.38,-10.04 210.60,-10.60 210.04,-11.38 209.71,-12.38 209.60,-13.60 190.40,-13.60 189.96,-11.38 189.40,-10.60 188.62,-10.04 187.62,-9.71 186.40,-9.60 186.40,9.60 188.62,10.04 189.40,10.60 189.96,11.38 190.29,12.38">
        <request index="0"  response="000000000000" foes="000000011000" cont="0"/>
        <request index="1"  response="100000100000" foes="111100111000" cont="0"/>
        <request index="2"  response="000010000000" foes="100010000000" cont="0"/>
        <request index="3"  response="100110000011" foes="100110000011" cont="0"/>
        <request index="4"  response="100110000011" foes="100110000011" cont="0"/>
        <request index="5"  response="001010000010" foes="011110000010" cont="1"/>
        <request index="6"  response="000000000000" foes="010000000000" cont="0"/>
        <request index="7"  response="100000100000" foes="110000111100" cont="0"/>
        <request index="8"  response="100000100010" foes="110000111010" cont="1"/>
        <request index="9"  response="000000000010" foes="000000100010" cont="0"/>
        <request index="10" response="000111100010" foes="000111100010" cont="0"/>
        <request index="11" response="000010000110" foes="000110011110" cont="1"/>