<?xml version="1.0" encoding="UTF-8"?>
<routes>
	<vType id="ArterialCar" length="4.0" accel="4.0" decel="5.0" maxSpeed="13.88"/>
	<vType id="SideCar" length="4.0" accel="4.0" decel="5.0" maxSpeed="13.88"/>
	<vType id="ArterialEmergency" vClass="emergency" minGap = '2.5' length="8.5" accel="3.5" decel="4.0" maxSpeed="20.11"/>
	<!--幹道直行-->
	<route id="C1C6" edges=" C1C2 C2C3 C3C4 C4C5 C5C6 "/>
	<route id="C6C1" edges=" C6C5 C5C4 C4C3 C3C2 C2C1 "/>
	<!--支道直行-->
	<route id="N1S1" edges=" N1C2 C2S1 "/>
	<route id="S1N1" edges=" S1C2 C2N1 "/>
	<route id="N2S2" edges=" N1C2 C2S1 "/>
	<route id="S2N2" edges=" S1C2 C2N1 "/>
	<route id="N3S3" edges=" N1C2 C2S1 "/>
	<route id="S3N3" edges=" S1C2 C2N1 "/>
	<route id="N4S4" edges=" N1C2 C2S1 "/>
	<route id="S4N4" edges=" S1C2 C2N1 "/>
	<!--幹道轉彎-->
	<route id="C1S1" edges=" C1C2 C2S1 "/>
	<route id="C1N1" edges=" C1C2 C2N1 "/>
	<route id="C2S2" edges=" C2C3 C3S2 "/>
	<route id="C2N2" edges=" C2C3 C3N2 "/>
	<route id="C3S3" edges=" C3C4 C4S3 "/>
	<route id="C3N3" edges=" C3C4 C4N3 "/>
	<route id="C4S4" edges=" C4C5 C5S4 "/>
	<route id="C4N4" edges=" C4C5 C5N4 "/>
	<route id="C6S4" edges=" C6C5 C5S4 "/>
	<route id="C6N4" edges=" C6C5 C5N4 "/>
	<route id="C5S3" edges=" C5C4 C4S3 "/>
	<route id="C5N3" edges=" C5C4 C4N3 "/>
	<route id="C4S2" edges=" C4C3 C3S2 "/>
	<route id="C4N2" edges=" C4C3 C3N2 "/>
	<route id="C3S1" edges=" C3C2 C2S1 "/>
	<route id="C3N1" edges=" C3C2 C2N1 "/>
	<!--支道轉彎-->
	<route id="S1C1" edges=" S1C2 C2C1 "/>
	<route id="S1C3" edges=" S1C2 C2C3 "/>
	<route id="S2C2" edges=" S2C3 C3C2 "/>
	<route id="S2C4" edges=" S2C3 C3C4 "/>
	<route id="S3C3" edges=" S3C4 C4C3 "/>
	<route id="S3C5" edges=" S3C4 C4C5 "/>
	<route id="S4C4" edges=" S4C5 C5C4 "/>
	<route id="S4C6" edges=" S4C5 C5C6 "/>
	<route id="N1C1" edges=" N1C2 C2C1 "/>
	<route id="N1C3" edges=" N1C2 C2C3 "/>
	<route id="N2C2" edges=" N2C3 C3C2 "/>
	<route id="N2C4" edges=" N2C3 C3C4 "/>
	<route id="N3C3" edges=" N3C4 C4C3 "/>
	<route id="N3C5" edges=" N3C4 C4C5 "/>
	<route id="N4C4" edges=" N4C5 C5C4 "/>
	<route id="N4C6" edges=" N4C5 C5C6 "/>

	<!--幹道緊急車輛-->
	<flow id="Emg_vehicle" type="ArterialEmergency" beg="0" end="7200" period="600" color="1,1,1" from="C1C2" to="C5C6" departLane="1"/>
	<!--幹道直行車-->
	<flow id="ACWTE" type="ArterialCar" beg="0" end="7200" vehsPerHour="412" color="1,1,0" from="C1C2" to="C5C6"/>
	<flow id="ACETW" type="ArterialCar" beg="0" end="7200" vehsPerHour="385" color="1,1,0" from="C6C5" to="C2C1"/>
	<!--幹道右轉車-->
	<flow id="ACWTS_1" type="ArterialCar" beg="0" end="7200" vehsPerHour="86" color="1,1,0" from="C1C2" to="C2S1"/>
	<flow id="ACWTS_2" type="ArterialCar" beg="0" end="7200" vehsPerHour="81" color="1,1,0" from="C1C2" to="C3S2"/>
	<flow id="ACWTS_3" type="ArterialCar" beg="0" end="7200" vehsPerHour="64" color="1,1,0" from="C1C2" to="C4S3"/>
	<flow id="ACWTS_4" type="ArterialCar" beg="0" end="7200" vehsPerHour="69" color="1,1,0" from="C1C2" to="C5S4"/>
	<flow id="ACETN_1" type="ArterialCar" beg="0" end="7200" vehsPerHour="82" color="1,1,0" from="C6C5" to="C2N1"/>
	<flow id="ACETN_2" type="ArterialCar" beg="0" end="7200" vehsPerHour="74" color="1,1,0" from="C6C5" to="C3N2"/>
	<flow id="ACETN_3" type="ArterialCar" beg="0" end="7200" vehsPerHour="80" color="1,1,0" from="C6C5" to="C4N3"/>
	<flow id="ACETN_4" type="ArterialCar" beg="0" end="7200" vehsPerHour="70" color="1,1,0" from="C6C5" to="C5N4"/>
	<!--幹道左轉車-->
	<flow id="ACWTN_1" type="ArterialCar" beg="0" end="7200" vehsPerHour="40" color="1,1,0" from="C1C2" to="C2N1"/>
	<flow id="ACWTN_2" type="ArterialCar" beg="0" end="7200" vehsPerHour="43" color="1,1,0" from="C1C2" to="C3N2"/>
	<flow id="ACWTN_3" type="ArterialCar" beg="0" end="7200" vehsPerHour="53" color="1,1,0" from="C1C2" to="C4N3"/>
	<flow id="ACWTN_4" type="ArterialCar" beg="0" end="7200" vehsPerHour="42" color="1,1,0" from="C1C2" to="C5N4"/>
	<flow id="ACETS_1" type="ArterialCar" beg="0" end="7200" vehsPerHour="39" color="1,1,0" from="C6C5" to="C2S1"/>
	<flow id="ACETS_2" type="ArterialCar" beg="0" end="7200" vehsPerHour="33" color="1,1,0" from="C6C5" to="C3S2"/>
	<flow id="ACETS_3" type="ArterialCar" beg="0" end="7200" vehsPerHour="54" color="1,1,0" from="C6C5" to="C4S3"/>
	<flow id="ACETS_4" type="ArterialCar" beg="0" end="7200" vehsPerHour="44" color="1,1,0" from="C6C5" to="C5S4"/>
	<!--支道直行車-->
	<flow id="SCNTS_1" type="SideCar" beg="0" end="7200" vehsPerHour="327" color="1,1,0" from="N1C2" to="C2S1"/>
	<flow id="SCNTS_2" type="SideCar" beg="0" end="7200" vehsPerHour="302" color="1,1,0" from="N2C3" to="C3S2"/>
	<flow id="SCNTS_3" type="SideCar" beg="0" end="7200" vehsPerHour="318" color="1,1,0" from="N3C4" to="C4S3"/>
	<flow id="SCNTS_4" type="SideCar" beg="0" end="7200" vehsPerHour="330" color="1,1,0" from="N4C5" to="C5S4"/>
	<flow id="SCSTN_1" type="SideCar" beg="0" end="7200" vehsPerHour="326" color="1,1,0" from="S1C2" to="C2N1"/>
	<flow id="SCSTN_2" type="SideCar" beg="0" end="7200" vehsPerHour="323" color="1,1,0" from="S2C3" to="C3N2"/>
	<flow id="SCSTN_3" type="SideCar" beg="0" end="7200" vehsPerHour="319" color="1,1,0" from="S3C4" to="C4N3"/>
	<flow id="SCSTN_4" type="SideCar" beg="0" end="7200" vehsPerHour="301" color="1,1,0" from="S4C5" to="C5N4"/>
	<!--支道右轉車-->
	<flow id="SCNTW_1" type="SideCar" beg="0" end="7200" vehsPerHour="42" color="1,1,0" from="N1C2" to="C2C1"/>
	<flow id="SCNTW_2" type="SideCar" beg="0" end="7200" vehsPerHour="37" color="1,1,0" from="N2C3" to="C2C1"/>
	<flow id="SCNTW_3" type="SideCar" beg="0" end="7200" vehsPerHour="43" color="1,1,0" from="N3C4" to="C2C1"/>
	<flow id="SCNTW_4" type="SideCar" beg="0" end="7200" vehsPerHour="40" color="1,1,0" from="N4C5" to="C2C1"/>
	<flow id="SCSTE_1" type="SideCar" beg="0" end="7200" vehsPerHour="43" color="1,1,0" from="S1C2" to="C5C6"/>
	<flow id="SCSTE_2" type="SideCar" beg="0" end="7200" vehsPerHour="37" color="1,1,0" from="S2C3" to="C5C6"/>
	<flow id="SCSTE_3" type="SideCar" beg="0" end="7200" vehsPerHour="41" color="1,1,0" from="S3C4" to="C5C6"/>
	<flow id="SCSTE_4" type="SideCar" beg="0" end="7200" vehsPerHour="45" color="1,1,0" from="S4C5" to="C5C6"/>
	<!--支道左轉車-->
	<flow id="SCSTW_1" type="SideCar" beg="0" end="7200" vehsPerHour="12" color="1,1,0" from="S1C2" to="C2C1"/>
	<flow id="SCSTW_2" type="SideCar" beg="0" end="7200" vehsPerHour="17" color="1,1,0" from="S2C3" to="C2C1"/>
	<flow id="SCSTW_3" type="SideCar" beg="0" end="7200" vehsPerHour="21" color="1,1,0" from="S3C4" to="C2C1"/>
	<flow id="SCSTW_4" type="SideCar" beg="0" end="7200" vehsPerHour="15" color="1,1,0" from="S4C5" to="C2C1"/>
	<flow id="SCNTE_1" type="SideCar" beg="0" end="7200" vehsPerHour="10" color="1,1,0" from="N1C2" to="C5C6"/>
	<flow id="SCNTE_2" type="SideCar" beg="0" end="7200" vehsPerHour="17" color="1,1,0" from="N2C3" to="C5C6"/>
	<flow id="SCNTE_3" type="SideCar" beg="0" end="7200" vehsPerHour="23" color="1,1,0" from="N3C4" to="C5C6"/>
	<flow id="SCNTE_4" type="SideCar" beg="0" end="7200" vehsPerHour="14" color="1,1,0" from="N4C5" to="C5C6"/>
</routes>