<?xml version="1.0" encoding="UTF-8"?>

<!-- generated on 06/24/20 16:35:02 by Eclipse SUMO jtrrouter Version 1.6.0
<configuration xmlns:xsi="http://www.w3.org/2001/XMLSchema-instance" xsi:noNamespaceSchemaLocation="http://sumo.dlr.de/xsd/jtrrouterConfiguration.xsd">

    <input>
        <net-file value="G:\My%20Drive\SUMO\0.Thesis\thesis_multipleIntersections\thesis_multiple_500.net.xml"/>
        <route-files value="G:\My%20Drive\SUMO\0.Thesis\thesis_multipleIntersections\thesis_multiple_flow_vc0.9.rou.xml"/>
        <turn-ratio-files value="G:\My%20Drive\SUMO\0.Thesis\thesis_multipleIntersections\thesis.turns.xml"/>
    </input>

    <output>
        <output-file value="G:\My%20Drive\SUMO\0.Thesis\thesis_multipleIntersections\thesis_multiple_flow_vc0.9_new.rou.xml"/>
    </output>

    <processing>
        <no-internal-links value="true"/>
    </processing>

</configuration>
-->

<routes xmlns:xsi="http://www.w3.org/2001/XMLSchema-instance" xsi:noNamespaceSchemaLocation="http://sumo.dlr.de/xsd/routes_file.xsd">
    <vType id="Bus" length="8.50" minGap="3.00" speedFactor="normc(1.10,0.00)" vClass="bus" jmDriveAfterRedTime="0" accel="1.2" decel="4.0"/>
    <vehicle id="Bus_North_20_1.0" type="Bus" depart="0.00" departLane="0" departSpeed="random" color="white">
        <route edges="C4E4 E4I1 I1E3 E3E5 E5I2 I2E6"/>
    </vehicle>
    <vType id="Auto" length="4.00" speedFactor="normc(1.00,0.00)" jmDriveAfterRedTime="0" accel="2.9" decel="7.5"/>
    <vehicle id="ChungHua_NB.0" type="Auto" depart="0.00" departLane="free" color="yellow">
        <route edges="C4E4 E4I1 I1E2 E2N1"/>
    </vehicle>
    <vehicle id="ChungHua_SB.0" type="Auto" depart="0.00" departLane="free" color="yellow">
        <route edges="N1E2 E2I1 I1E4 E4C4"/>
    </vehicle>
    <vehicle id="ChungYi_SB.0" type="Auto" depart="0.00" departLane="free" color="yellow">
        <route edges="N2I2 I2E6"/>
    </vehicle>
    <vehicle id="XiaoDong_EB.0" type="Auto" depart="0.00" departLane="free" color="yellow">
        <route edges="C1E1 E1I1 I1E3 E3E5 E5I2 I2E6"/>
    </vehicle>
    <vehicle id="XiaoDong_WB.0" type="Auto" depart="0.00" departLane="free" color="yellow">
        <route edges="E6I2 I2E5 E5E3 E3I1 I1E1 E1C1"/>
    </vehicle>
    <vehicle id="ChungHua_NB.1" type="Auto" depart="3.53" departLane="free" color="yellow">
        <route edges="C4E4 E4I1 I1E2 E2N1"/>
    </vehicle>
    <vehicle id="XiaoDong_EB.1" type="Auto" depart="3.64" departLane="free" color="yellow">
        <route edges="C1E1 E1I1 I1E3 E3E5 E5I2 I2N2"/>
    </vehicle>
    <vehicle id="XiaoDong_WB.1" type="Auto" depart="3.91" departLane="free" color="yellow">
        <route edges="E6I2 I2E5 E5E3 E3I1 I1E1 E1C1"/>
    </vehicle>
    <vehicle id="ChungHua_SB.1" type="Auto" depart="4.91" departLane="free" color="yellow">
        <route edges="N1E2 E2I1 I1E4 E4C4"/>
    </vehicle>
    <vehicle id="ChungHua_NB.2" type="Auto" depart="7.05" departLane="free" color="yellow">
        <route edges="C4E4 E4I1 I1E3 E3E5 E5I2 I2E6"/>
    </vehicle>
    <vehicle id="XiaoDong_EB.2" type="Auto" depart="7.28" departLane="free" color="yellow">
        <route edges="C1E1 E1I1 I1E3 E3E5 E5I2 I2E6"/>
    </vehicle>
    <vehicle id="XiaoDong_WB.2" type="Auto" depart="7.83" departLane="free" color="yellow">
        <route edges="E6I2 I2E5 E5E3 E3I1 I1E1 E1C1"/>
    </vehicle>
    <vehicle id="ChungHua_SB.2" type="Auto" depart="9.82" departLane="free" color="yellow">
        <route edges="N1E2 E2I1 I1E4 E4C4"/>
    </vehicle>
    <vehicle id="ChungHua_NB.3" type="Auto" depart="10.58" departLane="free" color="yellow">
        <route edges="C4E4 E4I1 I1E2 E2N1"/>
    </vehicle>
    <vehicle id="XiaoDong_EB.3" type="Auto" depart="10.92" departLane="free" color="yellow">
        <route edges="C1E1 E1I1 I1E3 E3E5 E5I2 I2E6"/>
    </vehicle>
    <vehicle id="XiaoDong_WB.3" type="Auto" depart="11.74" departLane="free" color="yellow">
        <route edges="E6I2 I2N2"/>
    </vehicle>
    <vehicle id="ChungHua_NB.4" type="Auto" depart="14.10" departLane="free" color="yellow">
        <route edges="C4E4 E4I1 I1E2 E2N1"/>
    </vehicle>
    <vehicle id="XiaoDong_EB.4" type="Auto" depart="14.56" departLane="free" color="yellow">
        <route edges="C1E1 E1I1 I1E3 E3E5 E5I2 I2E6"/>
    </vehicle>
    <vehicle id="ChungHua_SB.3" type="Auto" depart="14.73" departLane="free" color="yellow">
        <route edges="N1E2 E2I1 I1E4 E4C4"/>
    </vehicle>
    <vehicle id="XiaoDong_WB.4" type="Auto" depart="15.65" departLane="free" color="yellow">
        <route edges="E6I2 I2E5 E5E3 E3I1 I1E1 E1C1"/>
    </vehicle>
    <vehicle id="ChungHua_NB.5" type="Auto" depart="17.63" departLane="free" color="yellow">
        <route edges="C4E4 E4I1 I1E2 E2N1"/>
    </vehicle>
    <vehicle id="XiaoDong_EB.5" type="Auto" depart="18.20" departLane="free" color="yellow">
        <route edges="C1E1 E1I1 I1E3 E3E5 E5I2 I2E6"/>
    </vehicle>
    <vehicle id="XiaoDong_WB.5" type="Auto" depart="19.57" departLane="free" color="yellow">
        <route edges="E6I2 I2E5 E5E3 E3I1 I1E2 E2N1"/>
    </vehicle>
    <vehicle id="ChungHua_SB.4" type="Auto" depart="19.64" departLane="free" color="yellow">
        <route edges="N1E2 E2I1 I1E4 E4C4"/>
    </vehicle>
    <vehicle id="ChungHua_NB.6" type="Auto" depart="21.16" departLane="free" color="yellow">
        <route edges="C4E4 E4I1 I1E2 E2N1"/>
    </vehicle>
    <vehicle id="XiaoDong_EB.6" type="Auto" depart="21.84" departLane="free" color="yellow">
        <route edges="C1E1 E1I1 I1E3 E3E5 E5I2 I2E6"/>
    </vehicle>
    <vehicle id="XiaoDong_WB.6" type="Auto" depart="23.48" departLane="free" color="yellow">
        <route edges="E6I2 I2E5 E5E3 E3I1 I1E1 E1C1"/>
    </vehicle>
    <vehicle id="ChungHua_SB.5" type="Auto" depart="24.56" departLane="free" color="yellow">
        <route edges="N1E2 E2I1 I1E4 E4C4"/>
    </vehicle>
    <vehicle id="ChungHua_NB.7" type="Auto" depart="24.68" departLane="free" color="yellow">
        <route edges="C4E4 E4I1 I1E2 E2N1"/>
    </vehicle>
    <vehicle id="XiaoDong_EB.7" type="Auto" depart="25.48" departLane="free" color="yellow">
        <route edges="C1E1 E1I1 I1E3 E3E5 E5I2 I2E6"/>
    </vehicle>
    <vehicle id="ChungYi_SB.1" type="Auto" depart="25.53" departLane="free" color="yellow">
        <route edges="N2I2 I2E6"/>
    </vehicle>
    <vehicle id="XiaoDong_WB.7" type="Auto" depart="27.39" departLane="free" color="yellow">
        <route edges="E6I2 I2E5 E5E3 E3I1 I1E1 E1C1"/>
    </vehicle>
    <vehicle id="ChungHua_NB.8" type="Auto" depart="28.21" departLane="free" color="yellow">
        <route edges="C4E4 E4I1 I1E2 E2N1"/>
    </vehicle>
    <vehicle id="XiaoDong_EB.8" type="Auto" depart="29.12" departLane="free" color="yellow">
        <route edges="C1E1 E1I1 I1E3 E3E5 E5I2 I2E6"/>
    </vehicle>
    <vehicle id="ChungHua_SB.6" type="Auto" depart="29.47" departLane="free" color="yellow">
        <route edges="N1E2 E2I1 I1E4 E4C4"/>
    </vehicle>
    <vehicle id="XiaoDong_WB.8" type="Auto" depart="31.30" departLane="free" color="yellow">
        <route edges="E6I2 I2E5 E5E3 E3I1 I1E1 E1C1"/>
    </vehicle>
    <vehicle id="ChungHua_NB.9" type="Auto" depart="31.73" departLane="free" color="yellow">
        <route edges="C4E4 E4I1 I1E2 E2N1"/>
    </vehicle>
    <vehicle id="XiaoDong_EB.9" type="Auto" depart="32.76" departLane="free" color="yellow">
        <route edges="C1E1 E1I1 I1E3 E3E5 E5I2 I2E6"/>
    </vehicle>
    <vehicle id="ChungHua_SB.7" type="Auto" depart="34.38" departLane="free" color="yellow">
        <route edges="N1E2 E2I1 I1E4 E4C4"/>
    </vehicle>
    <vehicle id="XiaoDong_WB.9" type="Auto" depart="35.22" departLane="free" color="yellow">
        <route edges="E6I2 I2E5 E5E3 E3I1 I1E1 E1C1"/>
    </vehicle>
    <vehicle id="ChungHua_NB.10" type="Auto" depart="35.26" departLane="free" color="yellow">
        <route edges="C4E4 E4I1 I1E3 E3E5 E5I2 I2N2"/>
    </vehicle>
    <vehicle id="XiaoDong_EB.10" type="Auto" depart="36.40" departLane="free" color="yellow">
        <route edges="C1E1 E1I1 I1E3 E3E5 E5I2 I2E6"/>
    </vehicle>
    <vehicle id="ChungHua_NB.11" type="Auto" depart="38.79" departLane="free" color="yellow">
        <route edges="C4E4 E4I1 I1E2 E2N1"/>
    </vehicle>
    <vehicle id="XiaoDong_WB.10" type="Auto" depart="39.13" departLane="free" color="yellow">
        <route edges="E6I2 I2E5 E5E3 E3I1 I1E1 E1C1"/>
    </vehicle>
    <vehicle id="ChungHua_SB.8" type="Auto" depart="39.29" departLane="free" color="yellow">
        <route edges="N1E2 E2I1 I1E4 E4C4"/>
    </vehicle>
    <vehicle id="XiaoDong_EB.11" type="Auto" depart="40.04" departLane="free" color="yellow">
        <route edges="C1E1 E1I1 I1E3 E3E5 E5I2 I2E6"/>
    </vehicle>
    <vehicle id="ChungHua_NB.12" type="Auto" depart="42.31" departLane="free" color="yellow">
        <route edges="C4E4 E4I1 I1E2 E2N1"/>
    </vehicle>
    <vehicle id="XiaoDong_WB.11" type="Auto" depart="43.04" departLane="free" color="yellow">
        <route edges="E6I2 I2E5 E5E3 E3I1 I1E1 E1C1"/>
    </vehicle>
    <vehicle id="XiaoDong_EB.12" type="Auto" depart="43.68" departLane="free" color="yellow">
        <route edges="C1E1 E1I1 I1E3 E3E5 E5I2 I2E6"/>
    </vehicle>
    <vehicle id="ChungHua_SB.9" type="Auto" depart="44.20" departLane="free" color="yellow">
        <route edges="N1E2 E2I1 I1E4 E4C4"/>
    </vehicle>
    <vehicle id="ChungHua_NB.13" type="Auto" depart="45.84" departLane="free" color="yellow">
        <route edges="C4E4 E4I1 I1E3 E3E5 E5I2 I2E6"/>
    </vehicle>
    <vehicle id="XiaoDong_WB.12" type="Auto" depart="46.96" departLane="free" color="yellow">
        <route edges="E6I2 I2E5 E5E3 E3I1 I1E1 E1C1"/>
    </vehicle>
    <vehicle id="XiaoDong_EB.13" type="Auto" depart="47.32" departLane="free" color="yellow">
        <route edges="C1E1 E1I1 I1E3 E3E5 E5I2 I2E6"/>
    </vehicle>
    <vehicle id="ChungHua_SB.10" type="Auto" depart="49.11" departLane="free" color="yellow">
        <route edges="N1E2 E2I1 I1E4 E4C4"/>
    </vehicle>
    <vehicle id="ChungHua_NB.14" type="Auto" depart="49.36" departLane="free" color="yellow">
        <route edges="C4E4 E4I1 I1E2 E2N1"/>
    </vehicle>
    <vehicle id="XiaoDong_WB.13" type="Auto" depart="50.87" departLane="free" color="yellow">
        <route edges="E6I2 I2N2"/>
    </vehicle>
    <vehicle id="XiaoDong_EB.14" type="Auto" depart="50.96" departLane="free" color="yellow">
        <route edges="C1E1 E1I1 I1E3 E3E5 E5I2 I2E6"/>
    </vehicle>
    <vehicle id="ChungYi_SB.2" type="Auto" depart="51.06" departLane="free" color="yellow">
        <route edges="N2I2 I2E5 E5E3 E3I1 I1E2 E2N1"/>
    </vehicle>
    <vehicle id="ChungHua_NB.15" type="Auto" depart="52.89" departLane="free" color="yellow">
        <route edges="C4E4 E4I1 I1E2 E2N1"/>
    </vehicle>
    <vehicle id="ChungHua_SB.11" type="Auto" depart="54.02" departLane="free" color="yellow">
        <route edges="N1E2 E2I1 I1E4 E4C4"/>
    </vehicle>
    <vehicle id="XiaoDong_EB.15" type="Auto" depart="54.60" departLane="free" color="yellow">
        <route edges="C1E1 E1I1 I1E3 E3E5 E5I2 I2N2"/>
    </vehicle>
    <vehicle id="XiaoDong_WB.14" type="Auto" depart="54.78" departLane="free" color="yellow">
        <route edges="E6I2 I2E5 E5E3 E3I1 I1E1 E1C1"/>
    </vehicle>
    <vehicle id="ChungHua_NB.16" type="Auto" depart="56.42" departLane="free" color="yellow">
        <route edges="C4E4 E4I1 I1E1 E1C1"/>
    </vehicle>
    <vehicle id="XiaoDong_EB.16" type="Auto" depart="58.24" departLane="free" color="yellow">
        <route edges="C1E1 E1I1 I1E3 E3E5 E5I2 I2E6"/>
    </vehicle>
    <vehicle id="XiaoDong_WB.15" type="Auto" depart="58.70" departLane="free" color="yellow">
        <route edges="E6I2 I2E5 E5E3 E3I1 I1E1 E1C1"/>
    </vehicle>
    <vehicle id="ChungHua_SB.12" type="Auto" depart="58.93" departLane="free" color="yellow">
        <route edges="N1E2 E2I1 I1E4 E4C4"/>
    </vehicle>
    <vehicle id="ChungHua_NB.17" type="Auto" depart="59.94" departLane="free" color="yellow">
        <route edges="C4E4 E4I1 I1E3 E3E5 E5I2 I2E6"/>
    </vehicle>
    <vehicle id="XiaoDong_EB.17" type="Auto" depart="61.88" departLane="free" color="yellow">
        <route edges="C1E1 E1I1 I1E3 E3E5 E5I2 I2E6"/>
    </vehicle>
    <vehicle id="XiaoDong_WB.16" type="Auto" depart="62.61" departLane="free" color="yellow">
        <route edges="E6I2 I2E5 E5E3 E3I1 I1E1 E1C1"/>
    </vehicle>
    <vehicle id="ChungHua_NB.18" type="Auto" depart="63.47" departLane="free" color="yellow">
        <route edges="C4E4 E4I1 I1E3 E3E5 E5I2 I2E6"/>
    </vehicle>
    <vehicle id="ChungHua_SB.13" type="Auto" depart="63.84" departLane="free" color="yellow">
        <route edges="N1E2 E2I1 I1E4 E4C4"/>
    </vehicle>
    <vehicle id="XiaoDong_EB.18" type="Auto" depart="65.52" departLane="free" color="yellow">
        <route edges="C1E1 E1I1 I1E3 E3E5 E5I2 I2E6"/>
    </vehicle>
    <vehicle id="XiaoDong_WB.17" type="Auto" depart="66.52" departLane="free" color="yellow">
        <route edges="E6I2 I2E5 E5E3 E3I1 I1E1 E1C1"/>
    </vehicle>
    <vehicle id="ChungHua_NB.19" type="Auto" depart="66.99" departLane="free" color="yellow">
        <route edges="C4E4 E4I1 I1E3 E3E5 E5I2 I2E6"/>
    </vehicle>
    <vehicle id="ChungHua_SB.14" type="Auto" depart="68.75" departLane="free" color="yellow">
        <route edges="N1E2 E2I1 I1E4 E4C4"/>
    </vehicle>
    <vehicle id="XiaoDong_EB.19" type="Auto" depart="69.16" departLane="free" color="yellow">
        <route edges="C1E1 E1I1 I1E3 E3E5 E5I2 I2N2"/>
    </vehicle>
    <vehicle id="XiaoDong_WB.18" type="Auto" depart="70.43" departLane="free" color="yellow">
        <route edges="E6I2 I2E5 E5E3 E3I1 I1E2 E2N1"/>
    </vehicle>
    <vehicle id="ChungHua_NB.20" type="Auto" depart="70.52" departLane="free" color="yellow">
        <route edges="C4E4 E4I1 I1E3 E3E5 E5I2 I2E6"/>
    </vehicle>
    <vehicle id="XiaoDong_EB.20" type="Auto" depart="72.80" departLane="free" color="yellow">
        <route edges="C1E1 E1I1 I1E3 E3E5 E5I2 I2E6"/>
    </vehicle>
    <vehicle id="ChungHua_SB.15" type="Auto" depart="73.67" departLane="free" color="yellow">
        <route edges="N1E2 E2I1 I1E4 E4C4"/>
    </vehicle>
    <vehicle id="ChungHua_NB.21" type="Auto" depart="74.05" departLane="free" color="yellow">
        <route edges="C4E4 E4I1 I1E3 E3E5 E5I2 I2E6"/>
    </vehicle>
    <vehicle id="XiaoDong_WB.19" type="Auto" depart="74.35" departLane="free" color="yellow">
        <route edges="E6I2 I2E5 E5E3 E3I1 I1E1 E1C1"/>
    </vehicle>
    <vehicle id="XiaoDong_EB.21" type="Auto" depart="76.44" departLane="free" color="yellow">
        <route edges="C1E1 E1I1 I1E3 E3E5 E5I2 I2E6"/>
    </vehicle>
    <vehicle id="ChungYi_SB.3" type="Auto" depart="76.60" departLane="free" color="yellow">
        <route edges="N2I2 I2E5 E5E3 E3I1 I1E1 E1C1"/>
    </vehicle>
    <vehicle id="ChungHua_NB.22" type="Auto" depart="77.57" departLane="free" color="yellow">
        <route edges="C4E4 E4I1 I1E2 E2N1"/>
    </vehicle>
    <vehicle id="XiaoDong_WB.20" type="Auto" depart="78.26" departLane="free" color="yellow">
        <route edges="E6I2 I2E5 E5E3 E3I1 I1E1 E1C1"/>
    </vehicle>
    <vehicle id="ChungHua_SB.16" type="Auto" depart="78.58" departLane="free" color="yellow">
        <route edges="N1E2 E2I1 I1E4 E4C4"/>
    </vehicle>
    <vehicle id="XiaoDong_EB.22" type="Auto" depart="80.08" departLane="free" color="yellow">
        <route edges="C1E1 E1I1 I1E3 E3E5 E5I2 I2E6"/>
    </vehicle>
    <vehicle id="ChungHua_NB.23" type="Auto" depart="81.10" departLane="free" color="yellow">
        <route edges="C4E4 E4I1 I1E1 E1C1"/>
    </vehicle>
    <vehicle id="XiaoDong_WB.21" type="Auto" depart="82.17" departLane="free" color="yellow">
        <route edges="E6I2 I2E5 E5E3 E3I1 I1E2 E2N1"/>
    </vehicle>
    <vehicle id="ChungHua_SB.17" type="Auto" depart="83.49" departLane="free" color="yellow">
        <route edges="N1E2 E2I1 I1E1 E1C1"/>
    </vehicle>
    <vehicle id="XiaoDong_EB.23" type="Auto" depart="83.72" departLane="free" color="yellow">
        <route edges="C1E1 E1I1 I1E3 E3E5 E5I2 I2E6"/>
    </vehicle>
    <vehicle id="ChungHua_NB.24" type="Auto" depart="84.62" departLane="free" color="yellow">
        <route edges="C4E4 E4I1 I1E3 E3E5 E5I2 I2E6"/>
    </vehicle>
    <vehicle id="XiaoDong_WB.22" type="Auto" depart="86.09" departLane="free" color="yellow">
        <route edges="E6I2 I2E5 E5E3 E3I1 I1E2 E2N1"/>
    </vehicle>
    <vehicle id="XiaoDong_EB.24" type="Auto" depart="87.36" departLane="free" color="yellow">
        <route edges="C1E1 E1I1 I1E3 E3E5 E5I2 I2E6"/>
    </vehicle>
    <vehicle id="ChungHua_NB.25" type="Auto" depart="88.15" departLane="free" color="yellow">
        <route edges="C4E4 E4I1 I1E2 E2N1"/>
    </vehicle>
    <vehicle id="ChungHua_SB.18" type="Auto" depart="88.40" departLane="free" color="yellow">
        <route edges="N1E2 E2I1 I1E4 E4C4"/>
    </vehicle>
    <vehicle id="XiaoDong_WB.23" type="Auto" depart="90.00" departLane="free" color="yellow">
        <route edges="E6I2 I2E5 E5E3 E3I1 I1E1 E1C1"/>
    </vehicle>
    <vehicle id="XiaoDong_EB.25" type="Auto" depart="91.00" departLane="free" color="yellow">
        <route edges="C1E1 E1I1 I1E3 E3E5 E5I2 I2E6"/>
    </vehicle>
    <vehicle id="ChungHua_NB.26" type="Auto" depart="91.68" departLane="free" color="yellow">
        <route edges="C4E4 E4I1 I1E2 E2N1"/>
    </vehicle>
    <vehicle id="ChungHua_SB.19" type="Auto" depart="93.31" departLane="free" color="yellow">
        <route edges="N1E2 E2I1 I1E4 E4C4"/>
    </vehicle>
    <vehicle id="XiaoDong_WB.24" type="Auto" depart="93.91" departLane="free" color="yellow">
        <route edges="E6I2 I2E5 E5E3 E3I1 I1E2 E2N1"/>
    </vehicle>
    <vehicle id="XiaoDong_EB.26" type="Auto" depart="94.64" departLane="free" color="yellow">
        <route edges="C1E1 E1I1 I1E3 E3E5 E5I2 I2N2"/>
    </vehicle>
    <vehicle id="ChungHua_NB.27" type="Auto" depart="95.20" departLane="free" color="yellow">
        <route edges="C4E4 E4I1 I1E2 E2N1"/>
    </vehicle>
    <vehicle id="XiaoDong_WB.25" type="Auto" depart="97.83" departLane="free" color="yellow">
        <route edges="E6I2 I2E5 E5E3 E3I1 I1E1 E1C1"/>
    </vehicle>
    <vehicle id="ChungHua_SB.20" type="Auto" depart="98.22" departLane="free" color="yellow">
        <route edges="N1E2 E2I1 I1E4 E4C4"/>
    </vehicle>
    <vehicle id="XiaoDong_EB.27" type="Auto" depart="98.28" departLane="free" color="yellow">
        <route edges="C1E1 E1I1 I1E3 E3E5 E5I2 I2E6"/>
    </vehicle>
    <vehicle id="ChungHua_NB.28" type="Auto" depart="98.73" departLane="free" color="yellow">
        <route edges="C4E4 E4I1 I1E3 E3E5 E5I2 I2E6"/>
    </vehicle>
    <vehicle id="XiaoDong_WB.26" type="Auto" depart="101.74" departLane="free" color="yellow">
        <route edges="E6I2 I2E5 E5E3 E3I1 I1E2 E2N1"/>
    </vehicle>
    <vehicle id="XiaoDong_EB.28" type="Auto" depart="101.92" departLane="free" color="yellow">
        <route edges="C1E1 E1I1 I1E3 E3E5 E5I2 I2E6"/>
    </vehicle>
    <vehicle id="ChungYi_SB.4" type="Auto" depart="102.13" departLane="free" color="yellow">
        <route edges="N2I2 I2E5 E5E3 E3I1 I1E1 E1C1"/>
    </vehicle>
    <vehicle id="ChungHua_NB.29" type="Auto" depart="102.25" departLane="free" color="yellow">
        <route edges="C4E4 E4I1 I1E2 E2N1"/>
    </vehicle>
    <vehicle id="ChungHua_SB.21" type="Auto" depart="103.13" departLane="free" color="yellow">
        <route edges="N1E2 E2I1 I1E4 E4C4"/>
    </vehicle>
    <vehicle id="XiaoDong_EB.29" type="Auto" depart="105.56" departLane="free" color="yellow">
        <route edges="C1E1 E1I1 I1E3 E3E5 E5I2 I2N2"/>
    </vehicle>
    <vehicle id="XiaoDong_WB.27" type="Auto" depart="105.65" departLane="free" color="yellow">
        <route edges="E6I2 I2E5 E5E3 E3I1 I1E1 E1C1"/>
    </vehicle>
    <vehicle id="ChungHua_NB.30" type="Auto" depart="105.78" departLane="free" color="yellow">
        <route edges="C4E4 E4I1 I1E2 E2N1"/>
    </vehicle>
    <vehicle id="ChungHua_SB.22" type="Auto" depart="108.04" departLane="free" color="yellow">
        <route edges="N1E2 E2I1 I1E4 E4C4"/>
    </vehicle>
    <vehicle id="XiaoDong_EB.30" type="Auto" depart="109.20" departLane="free" color="yellow">
        <route edges="C1E1 E1I1 I1E3 E3E5 E5I2 I2E6"/>
    </vehicle>
    <vehicle id="ChungHua_NB.31" type="Auto" depart="109.31" departLane="free" color="yellow">
        <route edges="C4E4 E4I1 I1E2 E2N1"/>
    </vehicle>
    <vehicle id="XiaoDong_WB.28" type="Auto" depart="109.56" departLane="free" color="yellow">
        <route edges="E6I2 I2E5 E5E3 E3I1 I1E1 E1C1"/>
    </vehicle>
    <vehicle id="ChungHua_NB.32" type="Auto" depart="112.83" departLane="free" color="yellow">
        <route edges="C4E4 E4I1 I1E1 E1C1"/>
    </vehicle>
    <vehicle id="XiaoDong_EB.31" type="Auto" depart="112.84" departLane="free" color="yellow">
        <route edges="C1E1 E1I1 I1E3 E3E5 E5I2 I2E6"/>
    </vehicle>
    <vehicle id="ChungHua_SB.23" type="Auto" depart="112.95" departLane="free" color="yellow">
        <route edges="N1E2 E2I1 I1E4 E4C4"/>
    </vehicle>
    <vehicle id="XiaoDong_WB.29" type="Auto" depart="113.48" departLane="free" color="yellow">
        <route edges="E6I2 I2E5 E5E3 E3I1 I1E1 E1C1"/>
    </vehicle>
    <vehicle id="ChungHua_NB.33" type="Auto" depart="116.36" departLane="free" color="yellow">
        <route edges="C4E4 E4I1 I1E2 E2N1"/>
    </vehicle>
    <vehicle id="XiaoDong_EB.32" type="Auto" depart="116.48" departLane="free" color="yellow">
        <route edges="C1E1 E1I1 I1E3 E3E5 E5I2 I2E6"/>
    </vehicle>
    <vehicle id="XiaoDong_WB.30" type="Auto" depart="117.39" departLane="free" color="yellow">
        <route edges="E6I2 I2E5 E5E3 E3I1 I1E1 E1C1"/>
    </vehicle>
    <vehicle id="ChungHua_SB.24" type="Auto" depart="117.86" departLane="free" color="yellow">
        <route edges="N1E2 E2I1 I1E4 E4C4"/>
    </vehicle>
    <vehicle id="ChungHua_NB.34" type="Auto" depart="119.88" departLane="free" color="yellow">
        <route edges="C4E4 E4I1 I1E2 E2N1"/>
    </vehicle>
    <vehicle id="XiaoDong_EB.33" type="Auto" depart="120.12" departLane="free" color="yellow">
        <route edges="C1E1 E1I1 I1E3 E3E5 E5I2 I2E6"/>
    </vehicle>
    <vehicle id="XiaoDong_WB.31" type="Auto" depart="121.30" departLane="free" color="yellow">
        <route edges="E6I2 I2E5 E5E3 E3I1 I1E1 E1C1"/>
    </vehicle>
    <vehicle id="ChungHua_SB.25" type="Auto" depart="122.78" departLane="free" color="yellow">
        <route edges="N1E2 E2I1 I1E4 E4C4"/>
    </vehicle>
    <vehicle id="ChungHua_NB.35" type="Auto" depart="123.41" departLane="free" color="yellow">
        <route edges="C4E4 E4I1 I1E2 E2N1"/>
    </vehicle>
    <vehicle id="XiaoDong_EB.34" type="Auto" depart="123.76" departLane="free" color="yellow">
        <route edges="C1E1 E1I1 I1E3 E3E5 E5I2 I2E6"/>
    </vehicle>
    <vehicle id="XiaoDong_WB.32" type="Auto" depart="125.22" departLane="free" color="yellow">
        <route edges="E6I2 I2E5 E5E3 E3I1 I1E2 E2N1"/>
    </vehicle>
    <vehicle id="ChungHua_NB.36" type="Auto" depart="126.94" departLane="free" color="yellow">
        <route edges="C4E4 E4I1 I1E2 E2N1"/>
    </vehicle>
    <vehicle id="XiaoDong_EB.35" type="Auto" depart="127.40" departLane="free" color="yellow">
        <route edges="C1E1 E1I1 I1E3 E3E5 E5I2 I2E6"/>
    </vehicle>
    <vehicle id="ChungYi_SB.5" type="Auto" depart="127.66" departLane="free" color="yellow">
        <route edges="N2I2 I2E6"/>
    </vehicle>
    <vehicle id="ChungHua_SB.26" type="Auto" depart="127.69" departLane="free" color="yellow">
        <route edges="N1E2 E2I1 I1E4 E4C4"/>
    </vehicle>
    <vehicle id="XiaoDong_WB.33" type="Auto" depart="129.13" departLane="free" color="yellow">
        <route edges="E6I2 I2E5 E5E3 E3I1 I1E1 E1C1"/>
    </vehicle>
    <vehicle id="ChungHua_NB.37" type="Auto" depart="130.46" departLane="free" color="yellow">
        <route edges="C4E4 E4I1 I1E2 E2N1"/>
    </vehicle>
    <vehicle id="XiaoDong_EB.36" type="Auto" depart="131.04" departLane="free" color="yellow">
        <route edges="C1E1 E1I1 I1E3 E3E5 E5I2 I2E6"/>
    </vehicle>
    <vehicle id="ChungHua_SB.27" type="Auto" depart="132.60" departLane="free" color="yellow">
        <route edges="N1E2 E2I1 I1E4 E4C4"/>
    </vehicle>
    <vehicle id="XiaoDong_WB.34" type="Auto" depart="133.04" departLane="free" color="yellow">
        <route edges="E6I2 I2E5 E5E3 E3I1 I1E2 E2N1"/>
    </vehicle>
    <vehicle id="ChungHua_NB.38" type="Auto" depart="133.99" departLane="free" color="yellow">
        <route edges="C4E4 E4I1 I1E2 E2N1"/>
    </vehicle>
    <vehicle id="XiaoDong_EB.37" type="Auto" depart="134.68" departLane="free" color="yellow">
        <route edges="C1E1 E1I1 I1E4 E4C4"/>
    </vehicle>
    <vehicle id="XiaoDong_WB.35" type="Auto" depart="136.96" departLane="free" color="yellow">
        <route edges="E6I2 I2E5 E5E3 E3I1 I1E1 E1C1"/>
    </vehicle>
    <vehicle id="ChungHua_SB.28" type="Auto" depart="137.51" departLane="free" color="yellow">
        <route edges="N1E2 E2I1 I1E1 E1C1"/>
    </vehicle>
    <vehicle id="ChungHua_NB.39" type="Auto" depart="137.51" departLane="free" color="yellow">
        <route edges="C4E4 E4I1 I1E1 E1C1"/>
    </vehicle>
    <vehicle id="XiaoDong_EB.38" type="Auto" depart="138.32" departLane="free" color="yellow">
        <route edges="C1E1 E1I1 I1E3 E3E5 E5I2 I2N2"/>
    </vehicle>
    <vehicle id="XiaoDong_WB.36" type="Auto" depart="140.87" departLane="free" color="yellow">
        <route edges="E6I2 I2E5 E5E3 E3I1 I1E1 E1C1"/>
    </vehicle>
    <vehicle id="ChungHua_NB.40" type="Auto" depart="141.04" departLane="free" color="yellow">
        <route edges="C4E4 E4I1 I1E2 E2N1"/>
    </vehicle>
    <vehicle id="XiaoDong_EB.39" type="Auto" depart="141.96" departLane="free" color="yellow">
        <route edges="C1E1 E1I1 I1E3 E3E5 E5I2 I2E6"/>
    </vehicle>
    <vehicle id="ChungHua_SB.29" type="Auto" depart="142.42" departLane="free" color="yellow">
        <route edges="N1E2 E2I1 I1E4 E4C4"/>
    </vehicle>
    <vehicle id="ChungHua_NB.41" type="Auto" depart="144.57" departLane="free" color="yellow">
        <route edges="C4E4 E4I1 I1E2 E2N1"/>
    </vehicle>
    <vehicle id="XiaoDong_WB.37" type="Auto" depart="144.78" departLane="free" color="yellow">
        <route edges="E6I2 I2E5 E5E3 E3I1 I1E2 E2N1"/>
    </vehicle>
    <vehicle id="XiaoDong_EB.40" type="Auto" depart="145.60" departLane="free" color="yellow">
        <route edges="C1E1 E1I1 I1E3 E3E5 E5I2 I2N2"/>
    </vehicle>
    <vehicle id="ChungHua_SB.30" type="Auto" depart="147.33" departLane="free" color="yellow">
        <route edges="N1E2 E2I1 I1E4 E4C4"/>
    </vehicle>
    <vehicle id="ChungHua_NB.42" type="Auto" depart="148.09" departLane="free" color="yellow">
        <route edges="C4E4 E4I1 I1E2 E2N1"/>
    </vehicle>
    <vehicle id="XiaoDong_WB.38" type="Auto" depart="148.69" departLane="free" color="yellow">
        <route edges="E6I2 I2E5 E5E3 E3I1 I1E1 E1C1"/>
    </vehicle>
    <vehicle id="XiaoDong_EB.41" type="Auto" depart="149.24" departLane="free" color="yellow">
        <route edges="C1E1 E1I1 I1E3 E3E5 E5I2 I2E6"/>
    </vehicle>
    <vehicle id="ChungHua_NB.43" type="Auto" depart="151.62" departLane="free" color="yellow">
        <route edges="C4E4 E4I1 I1E3 E3E5 E5I2 I2E6"/>
    </vehicle>
    <vehicle id="ChungHua_SB.31" type="Auto" depart="152.24" departLane="free" color="yellow">
        <route edges="N1E2 E2I1 I1E4 E4C4"/>
    </vehicle>
    <vehicle id="XiaoDong_WB.39" type="Auto" depart="152.61" departLane="free" color="yellow">
        <route edges="E6I2 I2E5 E5E3 E3I1 I1E1 E1C1"/>
    </vehicle>
    <vehicle id="XiaoDong_EB.42" type="Auto" depart="152.88" departLane="free" color="yellow">
        <route edges="C1E1 E1I1 I1E3 E3E5 E5I2 I2E6"/>
    </vehicle>
    <vehicle id="ChungYi_SB.6" type="Auto" depart="153.19" departLane="free" color="yellow">
        <route edges="N2I2 I2E5 E5E3 E3I1 I1E1 E1C1"/>
    </vehicle>
    <vehicle id="ChungHua_NB.44" type="Auto" depart="155.14" departLane="free" color="yellow">
        <route edges="C4E4 E4I1 I1E2 E2N1"/>
    </vehicle>
    <vehicle id="XiaoDong_EB.43" type="Auto" depart="156.52" departLane="free" color="yellow">
        <route edges="C1E1 E1I1 I1E3 E3E5 E5I2 I2E6"/>
    </vehicle>
    <vehicle id="XiaoDong_WB.40" type="Auto" depart="156.52" departLane="free" color="yellow">
        <route edges="E6I2 I2N2"/>
    </vehicle>
    <vehicle id="ChungHua_SB.32" type="Auto" depart="157.15" departLane="free" color="yellow">
        <route edges="N1E2 E2I1 I1E4 E4C4"/>
    </vehicle>
    <vehicle id="ChungHua_NB.45" type="Auto" depart="158.67" departLane="free" color="yellow">
        <route edges="C4E4 E4I1 I1E2 E2N1"/>
    </vehicle>
    <vehicle id="XiaoDong_EB.44" type="Auto" depart="160.16" departLane="free" color="yellow">
        <route edges="C1E1 E1I1 I1E3 E3E5 E5I2 I2E6"/>
    </vehicle>
    <vehicle id="XiaoDong_WB.41" type="Auto" depart="160.43" departLane="free" color="yellow">
        <route edges="E6I2 I2E5 E5E3 E3I1 I1E1 E1C1"/>
    </vehicle>
    <vehicle id="ChungHua_SB.33" type="Auto" depart="162.06" departLane="free" color="yellow">
        <route edges="N1E2 E2I1 I1E4 E4C4"/>
    </vehicle>
    <vehicle id="ChungHua_NB.46" type="Auto" depart="162.20" departLane="free" color="yellow">
        <route edges="C4E4 E4I1 I1E2 E2N1"/>
    </vehicle>
    <vehicle id="XiaoDong_EB.45" type="Auto" depart="163.80" departLane="free" color="yellow">
        <route edges="C1E1 E1I1 I1E3 E3E5 E5I2 I2E6"/>
    </vehicle>
    <vehicle id="XiaoDong_WB.42" type="Auto" depart="164.35" departLane="free" color="yellow">
        <route edges="E6I2 I2E5 E5E3 E3I1 I1E1 E1C1"/>
    </vehicle>
    <vehicle id="ChungHua_NB.47" type="Auto" depart="165.72" departLane="free" color="yellow">
        <route edges="C4E4 E4I1 I1E2 E2N1"/>
    </vehicle>
    <vehicle id="ChungHua_SB.34" type="Auto" depart="166.97" departLane="free" color="yellow">
        <route edges="N1E2 E2I1 I1E4 E4C4"/>
    </vehicle>