<?xml version="1.0" encoding="UTF-8"?>

<!-- generated on 06/24/20 21:11:56 by Eclipse SUMO netedit Version 1.6.0
<configuration xmlns:xsi="http://www.w3.org/2001/XMLSchema-instance" xsi:noNamespaceSchemaLocation="http://sumo.dlr.de/xsd/netconvertConfiguration.xsd">

    <input>
        <sumo-net-file value="G:\My%20Drive\SUMO\0.Thesis\thesis_multipleIntersections\thesis_multiple_500.net.xml"/>
    </input>

    <output>
        <output-file value="G:\My%20Drive\SUMO\0.Thesis\thesis_multipleIntersections\thesis_multiple_500.net.xml"/>
    </output>

    <processing>
        <geometry.min-radius.fix.railways value="false"/>
        <geometry.max-grade.fix value="false"/>
        <offset.disable-normalization value="true"/>
        <lefthand value="false"/>
    </processing>

    <junctions>
        <no-turnarounds value="true"/>
        <junctions.corner-detail value="5"/>
        <junctions.limit-turn-speed value="5.5"/>
        <rectangular-lane-cut value="false"/>
    </junctions>

    <pedestrian>
        <walkingareas value="false"/>
    </pedestrian>

    <report>
        <aggregate-warnings value="5"/>
    </report>

</configuration>
-->

<net version="1.6" junctionCornerDetail="5" limitTurnSpeed="5.50" xmlns:xsi="http://www.w3.org/2001/XMLSchema-instance" xsi:noNamespaceSchemaLocation="http://sumo.dlr.de/xsd/net_file.xsd">

    <location netOffset="0.00,0.00" convBoundary="0.00,-500.00,800.00,500.00" origBoundary="-10000000000.00,-10000000000.00,10000000000.00,10000000000.00" projParameter="!"/>

    <edge id=":E1_0" function="internal">
        <lane id=":E1_0_0" index="0" speed="13.89" length="1.07" shape="400.00,8.00 400.00,8.00"/>
        <lane id=":E1_0_1" index="1" speed="13.89" length="1.07" shape="400.00,4.80 400.00,4.80"/>
        <lane id=":E1_0_2" index="2" speed="13.89" length="1.07" shape="400.00,4.80 400.00,1.60"/>
    </edge>
    <edge id=":E1_3" function="internal">
        <lane id=":E1_3_0" index="0" speed="13.89" length="1.07" shape="400.00,-8.00 400.00,-8.00"/>
        <lane id=":E1_3_1" index="1" speed="13.89" length="1.07" shape="400.00,-4.80 400.00,-4.80"/>
        <lane id=":E1_3_2" index="2" speed="13.89" length="1.07" shape="400.00,-4.80 400.00,-1.60"/>
    </edge>
    <edge id=":E2_0" function="internal">
        <lane id=":E2_0_0" index="0" speed="13.89" length="1.07" shape="492.00,100.00 492.00,100.00"/>
        <lane id=":E2_0_1" index="1" speed="13.89" length="1.07" shape="495.20,100.00 495.20,100.00"/>
        <lane id=":E2_0_2" index="2" speed="13.89" length="1.07" shape="495.20,100.00 498.40,100.00"/>
    </edge>
    <edge id=":E2_3" function="internal">
        <lane id=":E2_3_0" index="0" speed="13.89" length="1.07" shape="508.00,100.00 508.00,100.00"/>
        <lane id=":E2_3_1" index="1" speed="13.89" length="1.07" shape="504.80,100.00 504.80,100.00"/>
        <lane id=":E2_3_2" index="2" speed="13.89" length="1.07" shape="504.80,100.00 501.60,100.00"/>
    </edge>
    <edge id=":E3_0" function="internal">
        <lane id=":E3_0_0" index="0" speed="13.89" length="1.07" shape="600.00,8.00 600.00,8.00"/>
        <lane id=":E3_0_1" index="1" speed="13.89" length="1.07" shape="600.00,4.80 600.00,4.80"/>
        <lane id=":E3_0_2" index="2" speed="13.89" length="1.07" shape="600.00,4.80 600.00,1.60"/>
    </edge>
    <edge id=":E3_3" function="internal">
        <lane id=":E3_3_0" index="0" speed="13.89" length="0.10" shape="600.00,-8.00 600.00,-8.00"/>
        <lane id=":E3_3_1" index="1" speed="13.89" length="0.10" shape="600.00,-4.80 600.00,-4.80"/>
    </edge>
    <edge id=":E4_0" function="internal">
        <lane id=":E4_0_0" index="0" speed="13.89" length="1.07" shape="492.00,-50.00 492.00,-50.00"/>
        <lane id=":E4_0_1" index="1" speed="13.89" length="1.07" shape="495.20,-50.00 495.20,-50.00"/>
        <lane id=":E4_0_2" index="2" speed="13.89" length="1.07" shape="495.20,-50.00 498.40,-50.00"/>
    </edge>
    <edge id=":E4_3" function="internal">
        <lane id=":E4_3_0" index="0" speed="13.89" length="1.07" shape="508.00,-50.00 508.00,-50.00"/>
        <lane id=":E4_3_1" index="1" speed="13.89" length="1.07" shape="504.80,-50.00 504.80,-50.00"/>
        <lane id=":E4_3_2" index="2" speed="13.89" length="1.07" shape="504.80,-50.00 501.60,-50.00"/>
    </edge>
    <edge id=":E5_0" function="internal">
        <lane id=":E5_0_0" index="0" speed="13.89" length="0.10" shape="660.00,8.00 660.00,8.00"/>
        <lane id=":E5_0_1" index="1" speed="13.89" length="0.10" shape="660.00,4.80 660.00,4.80"/>
    </edge>
    <edge id=":E5_2" function="internal">
        <lane id=":E5_2_0" index="0" speed="13.89" length="1.07" shape="660.00,-8.00 660.00,-8.00"/>
        <lane id=":E5_2_1" index="1" speed="13.89" length="1.07" shape="660.00,-4.80 660.00,-4.80"/>
        <lane id=":E5_2_2" index="2" speed="13.89" length="1.07" shape="660.00,-4.80 660.00,-1.60"/>
    </edge>
    <edge id=":I1_0" function="internal">
        <lane id=":I1_0_0" index="0" speed="6.51" length="9.03" shape="492.00,13.60 491.65,11.15 490.60,9.40 488.85,8.35 486.40,8.00"/>
    </edge>
    <edge id=":I1_1" function="internal">
        <lane id=":I1_1_0" index="0" speed="13.89" length="27.20" shape="492.00,13.60 492.00,-13.60"/>
        <lane id=":I1_1_1" index="1" speed="13.89" length="27.20" shape="495.20,13.60 495.20,-13.60"/>
    </edge>
    <edge id=":I1_3" function="internal">
        <lane id=":I1_3_0" index="0" speed="11.39" length="29.85" shape="498.40,13.60 499.35,4.15 502.20,-2.60 506.95,-6.65 513.60,-8.00"/>
    </edge>
    <edge id=":I1_4" function="internal">
        <lane id=":I1_4_0" index="0" speed="10.88" length="27.14" shape="498.40,13.60 499.35,5.55 502.20,-0.20 506.95,-3.65 513.60,-4.80"/>
    </edge>
    <edge id=":I1_5" function="internal">
        <lane id=":I1_5_0" index="0" speed="6.51" length="9.03" shape="513.60,8.00 511.15,8.35 509.40,9.40 508.35,11.15 508.00,13.60"/>
    </edge>
    <edge id=":I1_6" function="internal">
        <lane id=":I1_6_0" index="0" speed="13.89" length="27.20" shape="513.60,8.00 486.40,8.00"/>
        <lane id=":I1_6_1" index="1" speed="13.89" length="27.20" shape="513.60,4.80 486.40,4.80"/>
    </edge>
    <edge id=":I1_8" function="internal">
        <lane id=":I1_8_0" index="0" speed="11.39" length="29.85" shape="513.60,1.60 504.15,0.65 497.40,-2.20 493.35,-6.95 492.00,-13.60"/>
    </edge>
    <edge id=":I1_9" function="internal">
        <lane id=":I1_9_0" index="0" speed="10.88" length="27.14" shape="513.60,1.60 505.55,0.65 499.80,-2.20 496.35,-6.95 495.20,-13.60"/>
    </edge>
    <edge id=":I1_10" function="internal">
        <lane id=":I1_10_0" index="0" speed="6.51" length="9.03" shape="508.00,-13.60 508.35,-11.15 509.40,-9.40 511.15,-8.35 513.60,-8.00"/>
    </edge>
    <edge id=":I1_11" function="internal">
        <lane id=":I1_11_0" index="0" speed="13.89" length="27.20" shape="508.00,-13.60 508.00,13.60"/>
        <lane id=":I1_11_1" index="1" speed="13.89" length="27.20" shape="504.80,-13.60 504.80,13.60"/>
    </edge>
    <edge id=":I1_13" function="internal">
        <lane id=":I1_13_0" index="0" speed="11.39" length="29.85" shape="501.60,-13.60 500.65,-4.15 497.80,2.60 493.05,6.65 486.40,8.00"/>
    </edge>
    <edge id=":I1_14" function="internal">
        <lane id=":I1_14_0" index="0" speed="10.88" length="27.14" shape="501.60,-13.60 500.65,-5.55 497.80,0.20 493.05,3.65 486.40,4.80"/>
    </edge>
    <edge id=":I1_15" function="internal">
        <lane id=":I1_15_0" index="0" speed="6.51" length="9.03" shape="486.40,-8.00 488.85,-8.35 490.60,-9.40 491.65,-11.15 492.00,-13.60"/>
    </edge>
    <edge id=":I1_16" function="internal">
        <lane id=":I1_16_0" index="0" speed="13.89" length="27.20" shape="486.40,-8.00 513.60,-8.00"/>
        <lane id=":I1_16_1" index="1" speed="13.89" length="27.20" shape="486.40,-4.80 513.60,-4.80"/>
    </edge>
    <edge id=":I1_18" function="internal">
        <lane id=":I1_18_0" index="0" speed="11.39" length="29.85" shape="486.40,-1.60 495.85,-0.65 502.60,2.20 506.65,6.95 508.00,13.60"/>
    </edge>
    <edge id=":I1_19" function="internal">
        <lane id=":I1_19_0" index="0" speed="10.88" length="27.14" shape="486.40,-1.60 494.45,-0.65 500.20,2.20 503.65,6.95 504.80,13.60"/>
    </edge>
    <edge id=":I2_0" function="internal">
        <lane id=":I2_0_0" index="0" speed="6.51" length="9.03" shape="698.40,13.60 698.05,11.15 697.00,9.40 695.25,8.35 692.80,8.00"/>
    </edge>
    <edge id=":I2_1" function="internal">
        <lane id=":I2_1_0" index="0" speed="9.32" length="19.63" shape="698.40,13.60 698.95,6.95 700.60,2.20 703.35,-0.65 707.20,-1.60"/>
    </edge>
    <edge id=":I2_2" function="internal">
        <lane id=":I2_2_0" index="0" speed="6.51" length="9.03" shape="707.20,8.00 704.75,8.35 703.00,9.40 701.95,11.15 701.60,13.60"/>
    </edge>
    <edge id=":I2_3" function="internal">
        <lane id=":I2_3_0" index="0" speed="13.89" length="14.40" shape="707.20,8.00 692.80,8.00"/>
        <lane id=":I2_3_1" index="1" speed="13.89" length="14.40" shape="707.20,4.80 692.80,4.80"/>
    </edge>
    <edge id=":I2_5" function="internal">
        <lane id=":I2_5_0" index="0" speed="13.89" length="14.40" shape="692.80,-8.00 707.20,-8.00"/>
        <lane id=":I2_5_1" index="1" speed="13.89" length="14.40" shape="692.80,-4.80 707.20,-4.80"/>
        <lane id=":I2_5_2" index="2" speed="13.89" length="14.40" shape="692.80,-1.60 707.20,-1.60"/>
    </edge>
    <edge id=":I2_8" function="internal">
        <lane id=":I2_8_0" index="0" speed="9.32" length="19.63" shape="692.80,-1.60 696.65,-0.65 699.40,2.20 701.05,6.95 701.60,13.60"/>
    </edge>

    <edge id="-gneE0" from="S2" to="I2" priority="-1">
        <lane id="-gneE0_0" index="0" speed="13.89" length="16.40" shape="701.60,-30.00 701.60,-13.60"/>
    </edge>
    <edge id="C1E1" from="C1" to="E1" priority="-1">
        <lane id="C1E1_0" index="0" speed="13.89" length="400.00" shape="0.00,-8.00 400.00,-8.00"/>
        <lane id="C1E1_1" index="1" speed="13.89" length="400.00" shape="0.00,-4.80 400.00,-4.80"/>
        <lane id="C1E1_2" index="2" disallow="all" speed="13.89" length="400.00" shape="0.00,-1.60 400.00,-1.60"/>
    </edge>
    <edge id="C4E4" from="S1" to="E4" priority="-1">
        <lane id="C4E4_0" index="0" speed="13.89" length="450.00" shape="508.00,-500.00 508.00,-50.00"/>
        <lane id="C4E4_1" index="1" speed="13.89" length="450.00" shape="504.80,-500.00 504.80,-50.00"/>
        <lane id="C4E4_2" index="2" disallow="all" speed="13.89" length="450.00" shape="501.60,-500.00 501.60,-50.00"/>
    </edge>
    <edge id="E1C1" from="E1" to="C1" priority="-1">
        <lane id="E1C1_0" index="0" speed="13.89" length="400.00" shape="400.00,8.00 0.00,8.00"/>
        <lane id="E1C1_1" index="1" speed="13.89" length="400.00" shape="400.00,4.80 0.00,4.80"/>
        <lane id="E1C1_2" index="2" speed="13.89" length="400.00" shape="400.00,1.60 0.00,1.60"/>
    </edge>
    <edge id="E1I1" from="E1" to="I1" priority="-1">
        <lane id="E1I1_0" index="0" speed="13.89" length="86.40" shape="400.00,-8.00 486.40,-8.00"/>
        <lane id="E1I1_1" index="1" speed="13.89" length="86.40" shape="400.00,-4.80 486.40,-4.80"/>
        <lane id="E1I1_2" index="2" speed="13.89" length="86.40" shape="400.00,-1.60 486.40,-1.60"/>
    </edge>
    <edge id="E2I1" from="E2" to="I1" priority="-1">
        <lane id="E2I1_0" index="0" speed="13.89" length="86.40" shape="492.00,100.00 492.00,13.60"/>
        <lane id="E2I1_1" index="1" speed="13.89" length="86.40" shape="495.20,100.00 495.20,13.60"/>
        <lane id="E2I1_2" index="2" speed="13.89" length="86.40" shape="498.40,100.00 498.40,13.60"/>
    </edge>
    <edge id="E2N1" from="E2" to="N1" priority="-1">
        <lane id="E2N1_0" index="0" speed="13.89" length="400.00" shape="508.00,100.00 508.00,500.00"/>
        <lane id="E2N1_1" index="1" speed="13.89" length="400.00" shape="504.80,100.00 504.80,500.00"/>
        <lane id="E2N1_2" index="2" speed="13.89" length="400.00" shape="501.60,100.00 501.60,500.00"/>
    </edge>
    <edge id="E3E5" from="E3" to="E5" priority="-1">
        <lane id="E3E5_0" index="0" speed="13.89" length="60.00" shape="600.00,-8.00 660.00,-8.00"/>
        <lane id="E3E5_1" index="1" speed="13.89" length="60.00" shape="600.00,-4.80 660.00,-4.80"/>
        <lane id="E3E5_2" index="2" disallow="all" speed="13.89" length="60.00" shape="600.00,-1.60 660.00,-1.60"/>
    </edge>
    <edge id="E3I1" from="E3" to="I1" priority="-1">
        <lane id="E3I1_0" index="0" speed="13.89" length="86.40" shape="600.00,8.00 513.60,8.00"/>
        <lane id="E3I1_1" index="1" speed="13.89" length="86.40" shape="600.00,4.80 513.60,4.80"/>
        <lane id="E3I1_2" index="2" speed="13.89" length="86.40" shape="600.00,1.60 513.60,1.60"/>
    </edge>
    <edge id="E4C4" from="E4" to="S1" priority="-1">
        <lane id="E4C4_0" index="0" speed="13.89" length="450.00" shape="492.00,-50.00 492.00,-500.00"/>
        <lane id="E4C4_1" index="1" speed="13.89" length="450.00" shape="495.20,-50.00 495.20,-500.00"/>
        <lane id="E4C4_2" index="2" speed="13.89" length="450.00" shape="498.40,-50.00 498.40,-500.00"/>
    </edge>
    <edge id="E4I1" from="E4" to="I1" priority="-1">
        <lane id="E4I1_0" index="0" speed="13.89" length="36.40" shape="508.00,-50.00 508.00,-13.60"/>
        <lane id="E4I1_1" index="1" speed="13.89" length="36.40" shape="504.80,-50.00 504.80,-13.60"/>
        <lane id="E4I1_2" index="2" speed="13.89" length="36.40" shape="501.60,-50.00 501.60,-13.60"/>
    </edge>
    <edge id="E5E3" from="E5" to="E3" priority="-1">
        <lane id="E5E3_0" index="0" speed="13.89" length="60.00" shape="660.00,8.00 600.00,8.00"/>
        <lane id="E5E3_1" index="1" speed="13.89" length="60.00" shape="660.00,4.80 600.00,4.80"/>
        <lane id="E5E3_2" index="2" disallow="all" speed="13.89" length="60.00" shape="660.00,1.60 600.00,1.60"/>
    </edge>
    <edge id="E5I2" from="E5" to="I2" priority="-1">
        <lane id="E5I2_0" index="0" speed="13.89" length="32.80" shape="660.00,-8.00 692.80,-8.00"/>
        <lane id="E5I2_1" index="1" speed="13.89" length="32.80" shape="660.00,-4.80 692.80,-4.80"/>
        <lane id="E5I2_2" index="2" speed="13.89" length="32.80" shape="660.00,-1.60 692.80,-1.60"/>
    </edge>
    <edge id="E6I2" from="E6" to="I2" priority="-1">
        <lane id="E6I2_0" index="0" speed="13.89" length="92.80" shape="800.00,8.00 707.20,8.00"/>
        <lane id="E6I2_1" index="1" speed="13.89" length="92.80" shape="800.00,4.80 707.20,4.80"/>
        <lane id="E6I2_2" index="2" disallow="all" speed="13.89" length="92.80" shape="800.00,1.60 707.20,1.60"/>
    </edge>
    <edge id="I1E1" from="I1" to="E1" priority="-1">
        <lane id="I1E1_0" index="0" speed="13.89" length="86.40" shape="486.40,8.00 400.00,8.00"/>
        <lane id="I1E1_1" index="1" speed="13.89" length="86.40" shape="486.40,4.80 400.00,4.80"/>
        <lane id="I1E1_2" index="2" disallow="all" speed="13.89" length="86.40" shape="486.40,1.60 400.00,1.60"/>
    </edge>
    <edge id="I1E2" from="I1" to="E2" priority="-1">
        <lane id="I1E2_0" index="0" speed="13.89" length="86.40" shape="508.00,13.60 508.00,100.00"/>
        <lane id="I1E2_1" index="1" speed="13.89" length="86.40" shape="504.80,13.60 504.80,100.00"/>
        <lane id="I1E2_2" index="2" disallow="all" speed="13.89" length="86.40" shape="501.60,13.60 501.60,100.00"/>
    </edge>
    <edge id="I1E3" from="I1" to="E3" priority="-1">
        <lane id="I1E3_0" index="0" speed="13.89" length="86.40" shape="513.60,-8.00 600.00,-8.00"/>
        <lane id="I1E3_1" index="1" speed="13.89" length="86.40" shape="513.60,-4.80 600.00,-4.80"/>
        <lane id="I1E3_2" index="2" disallow="all" speed="13.89" length="86.40" shape="513.60,-1.60 600.00,-1.60"/>
    </edge>
    <edge id="I1E4" from="I1" to="E4" priority="-1">
        <lane id="I1E4_0" index="0" speed="13.89" length="36.40" shape="492.00,-13.60 492.00,-50.00"/>
        <lane id="I1E4_1" index="1" speed="13.89" length="36.40" shape="495.20,-13.60 495.20,-50.00"/>
        <lane id="I1E4_2" index="2" disallow="all" speed="13.89" length="36.40" shape="498.40,-13.60 498.40,-50.00"/>
    </edge>
    <edge id="I2E5" from="I2" to="E5" priority="-1">
        <lane id="I2E5_0" index="0" speed="13.89" length="32.80" shape="692.80,8.00 660.00,8.00"/>
        <lane id="I2E5_1" index="1" speed="13.89" length="32.80" shape="692.80,4.80 660.00,4.80"/>
        <lane id="I2E5_2" index="2" disallow="all" speed="13.89" length="32.80" shape="692.80,1.60 660.00,1.60"/>
    </edge>
    <edge id="I2E6" from="I2" to="E6" priority="-1">
        <lane id="I2E6_0" index="0" speed="13.89" length="92.80" shape="707.20,-8.00 800.00,-8.00"/>
        <lane id="I2E6_1" index="1" speed="13.89" length="92.80" shape="707.20,-4.80 800.00,-4.80"/>
        <lane id="I2E6_2" index="2" speed="13.89" length="92.80" shape="707.20,-1.60 800.00,-1.60"/>
    </edge>
    <edge id="I2N2" from="I2" to="N2" priority="-1">
        <lane id="I2N2_0" index="0" speed="13.89" length="186.40" shape="701.60,13.60 701.60,200.00"/>
    </edge>
    <edge id="N1E2" from="N1" to="E2" priority="-1">
        <lane id="N1E2_0" index="0" speed="13.89" length="400.00" shape="492.00,500.00 492.00,100.00"/>
        <lane id="N1E2_1" index="1" speed="13.89" length="400.00" shape="495.20,500.00 495.20,100.00"/>
        <lane id="N1E2_2" index="2" disallow="all" speed="13.89" length="400.00" shape="498.40,500.00 498.40,100.00"/>
    </edge>
    <edge id="N2I2" from="N2" to="I2" priority="-1">
        <lane id="N2I2_0" index="0" speed="13.89" length="186.40" shape="698.40,200.00 698.40,13.60"/>
    </edge>
    <edge id="gneE0" from="I2" to="S2" priority="-1">
        <lane id="gneE0_0" index="0" speed="13.89" length="16.40" shape="698.40,-13.60 698.40,-30.00"/>
    </edge>

    <tlLogic id="I1" type="static" programID="0" offset="0">
        <phase duration="38" state="GGGrrrrrrrGGGrrrrrrr"/>
        <phase duration="3"  state="yyyrrrrrrryyyrrrrrrr"/>
        <phase duration="2"  state="rrrrrrrrrrrrrrrrrrrr"/>
        <phase duration="12" state="rrrGGrrrrrrrrGGrrrrr"/>
        <phase duration="3"  state="rrryyrrrrrrrryyrrrrr"/>
        <phase duration="2"  state="rrrrrrrrrrrrrrrrrrrr"/>
        <phase duration="36" state="rrrrrGGGrrrrrrrGGGrr"/>
        <phase duration="3"  state="rrrrryyyrrrrrrryyyrr"/>
        <phase duration="2"  state="rrrrrrrrrrrrrrrrrrrr"/>
        <phase duration="14" state="rrrrrrrrGGrrrrrrrrGG"/>
        <phase duration="3"  state="rrrrrrrryyrrrrrrrryy"/>
        <phase duration="2"  state="rrrrrrrrrrrrrrrrrrrr"/>
    </tlLogic>
    <tlLogic id="I2" type="static" programID="0" offset="0">
        <phase duration="32" state="GGrrrrrrr"/>
        <phase duration="3"  state="yyrrrrrrr"/>
        <phase duration="2"  state="rrrrrrrrr"/>
     
		<phase duration="68" state="rrGGGGGGr"/>
        <phase duration="3"  state="rryyyyyyr"/>
        <phase duration="2"  state="rrrrrrrrr"/>
		
		<phase duration="5"  state="rrrrrrrrG"/>
        <phase duration="3"  state="rrrrrrrry"/>
        <phase duration="2"  state="rrrrrrrrr"/>
    </tlLogic>

    <junction id="C1" type="dead_end" x="0.00" y="0.00" incLanes="E1C1_0 E1C1_1 E1C1_2" intLanes="" shape="0.00,-3.20 0.00,9.60 0.00,0.00"/>
    <junction id="E1" type="priority" x="400.00" y="0.00" incLanes="I1E1_0 I1E1_1 I1E1_2 C1E1_0 C1E1_1 C1E1_2" intLanes=":E1_0_0 :E1_0_1 :E1_0_2 :E1_3_0 :E1_3_1 :E1_3_2" shape="400.00,9.60 400.00,-9.60 400.00,9.60">
        <request index="0" response="000000" foes="000000" cont="0"/>
        <request index="1" response="000000" foes="000000" cont="0"/>
        <request index="2" response="000000" foes="000000" cont="0"/>
        <request index="3" response="000000" foes="000000" cont="0"/>
        <request index="4" response="000000" foes="000000" cont="0"/>
        <request index="5" response="000000" foes="000000" cont="0"/>
    </junction>
    <junction id="E2" type="priority" x="500.00" y="100.00" incLanes="N1E2_0 N1E2_1 N1E2_2 I1E2_0 I1E2_1 I1E2_2" intLanes=":E2_0_0 :E2_0_1 :E2_0_2 :E2_3_0 :E2_3_1 :E2_3_2" shape="490.40,100.00 509.60,100.00 490.40,100.00">
        <request index="0" response="000000" foes="000000" cont="0"/>
        <request index="1" response="000000" foes="000000" cont="0"/>
        <request index="2" response="000000" foes="000000" cont="0"/>
        <request index="3" response="000000" foes="000000" cont="0"/>
        <request index="4" response="000000" foes="000000" cont="0"/>
        <request index="5" response="000000" foes="000000" cont="0"/>
    </junction>
    <junction id="E3" type="priority" x="600.00" y="0.00" incLanes="E5E3_0 E5E3_1 E5E3_2 I1E3_0 I1E3_1 I1E3_2" intLanes=":E3_0_0 :E3_0_1 :E3_0_2 :E3_3_0 :E3_3_1" shape="600.00,9.60 600.00,-9.60 600.00,9.60">
        <request index="0" response="00000" foes="00000" cont="0"/>
        <request index="1" response="00000" foes="00000" cont="0"/>
        <request index="2" response="00000" foes="00000" cont="0"/>
        <request index="3" response="00000" foes="00000" cont="0"/>
        <request index="4" response="00000" foes="00000" cont="0"/>
    </junction>
    <junction id="E4" type="priority" x="500.00" y="-50.00" incLanes="I1E4_0 I1E4_1 I1E4_2 C4E4_0 C4E4_1 C4E4_2" intLanes=":E4_0_0 :E4_0_1 :E4_0_2 :E4_3_0 :E4_3_1 :E4_3_2" shape="490.40,-50.00 509.60,-50.00 490.40,-50.00">
        <request index="0" response="000000" foes="000000" cont="0"/>
        <request index="1" response="000000" foes="000000" cont="0"/>
        <request index="2" response="000000" foes="000000" cont="0"/>
        <request index="3" response="000000" foes="000000" cont="0"/>
        <request index="4" response="000000" foes="000000" cont="0"/>
        <request index="5" response="000000" foes="000000" cont="0"/>
    </junction>
    <junction id="E5" type="priority" x="660.00" y="0.00" incLanes="I2E5_0 I2E5_1 I2E5_2 E3E5_0 E3E5_1 E3E5_2" intLanes=":E5_0_0 :E5_0_1 :E5_2_0 :E5_2_1 :E5_2_2" shape="660.00,9.60 660.00,-9.60 660.00,9.60">
        <request index="0" response="00000" foes="00000" cont="0"/>
        <request index="1" response="00000" foes="00000" cont="0"/>
        <request index="2" response="00000" foes="00000" cont="0"/>
        <request index="3" response="00000" foes="00000" cont="0"/>
        <request index="4" response="00000" foes="00000" cont="0"/>
    </junction>
    <junction id="E6" type="dead_end" x="800.00" y="0.00" incLanes="I2E6_0 I2E6_1 I2E6_2" intLanes="" shape="800.00,3.20 800.00,-9.60 800.00,0.00"/>
    <junction id="I1" type="traffic_light" x="500.00" y="0.00" incLanes="E2I1_0 E2I1_1 E2I1_2 E3I1_0 E3I1_1 E3I1_2 E4I1_0 E4I1_1 E4I1_2 E1I1_0 E1I1_1 E1I1_2" intLanes=":I1_0_0 :I1_1_0 :I1_1_1 :I1_3_0 :I1_4_0 :I1_5_0 :I1_6_0 :I1_6_1 :I1_8_0 :I1_9_0 :I1_10_0 :I1_11_0 :I1_11_1 :I1_13_0 :I1_14_0 :I1_15_0 :I1_16_0 :I1_16_1 :I1_18_0 :I1_19_0" shape="490.40,13.60 509.60,13.60 510.04,11.38 510.60,10.60 511.38,10.04 512.38,9.71 513.60,9.60 513.60,-9.60 511.38,-10.04 510.60,-10.60 510.04,-11.38 509.71,-12.38 509.60,-13.60 490.40,-13.60 489.96,-11.38 489.40,-10.60 488.62,-10.04 487.62,-9.71 486.40,-9.60 486.40,9.60 488.62,10.04 489.40,10.60 489.96,11.38 490.29,12.38">
        <request index="0"  response="00000000000000000000" foes="00000110000011000000" cont="0"/>
        <request index="1"  response="00000000000000000000" foes="11111110001111000000" cont="0"/>
        <request index="2"  response="00000000000000000000" foes="11111110001111000000" cont="0"/>
        <request index="3"  response="00000001110000000000" foes="11110001111111000000" cont="0"/>
        <request index="4"  response="00000001110000000000" foes="11110001111111000000" cont="0"/>
        <request index="5"  response="00000001100000000000" foes="11000001100000000000" cont="0"/>
        <request index="6"  response="00000111100000011111" foes="11000111100000011111" cont="0"/>
        <request index="7"  response="00000111100000011111" foes="11000111100000011111" cont="0"/>
        <request index="8"  response="00111111100000011110" foes="00111111100000011110" cont="0"/>
        <request index="9"  response="00111111100000011110" foes="00111111100000011110" cont="0"/>
        <request index="10" response="00000000000000000000" foes="00110000000000011000" cont="0"/>
        <request index="11" response="00000000000000000000" foes="11110000001111111000" cont="0"/>
        <request index="12" response="00000000000000000000" foes="11110000001111111000" cont="0"/>
        <request index="13" response="00000000000000000111" foes="11110000001111000111" cont="0"/>
        <request index="14" response="00000000000000000111" foes="11110000001111000111" cont="0"/>
        <request index="15" response="00000000000000000110" foes="00000000001100000110" cont="0"/>
        <request index="16" response="00000111110000011110" foes="00000111111100011110" cont="0"/>
        <request index="17" response="00000111110000011110" foes="00000111111100011110" cont="0"/>
        <request index="18" response="00000111100011111110" foes="00000111100011111110" cont="0"/>
        <request index="19" response="00000111100011111110" foes="00000111100011111110" cont="0"/>
    </junction>
    <junction id="I2" type="traffic_light" x="700.00" y="0.00" incLanes="N2I2_0 E6I2_0 E6I2_1 E6I2_2 -gneE0_0 E5I2_0 E5I2_1 E5I2_2" intLanes=":I2_0_0 :I2_1_0 :I2_2_0 :I2_3_0 :I2_3_1 :I2_5_0 :I2_5_1 :I2_5_2 :I2_8_0" shape="696.80,13.60 703.20,13.60 703.64,11.38 704.20,10.60 704.98,10.04 705.98,9.71 707.20,9.60 707.20,-9.60 704.98,-10.04 704.20,-10.60 703.64,-11.38 703.31,-12.38 703.20,-13.60 696.80,-13.60 696.36,-11.38 695.80,-10.60 695.02,-10.04 694.02,-9.71 692.80,-9.60 692.80,9.60 695.02,10.04 695.80,10.60 696.36,11.38 696.69,12.38">
        <request index="0" response="000011000" foes="000011000" cont="0"/>
        <request index="1" response="111111000" foes="111111000" cont="0"/>
        <request index="2" response="000000000" foes="100000000" cont="0"/>
        <request index="3" response="000000000" foes="100000011" cont="0"/>
        <request index="4" response="000000000" foes="100000011" cont="0"/>
        <request index="5" response="000000000" foes="000000010" cont="0"/>
        <request index="6" response="000000000" foes="000000010" cont="0"/>
        <request index="7" response="000000000" foes="000000010" cont="0"/>
        <request index="8" response="000011100" foes="000011110" cont="0"/>
    </junction>
    <junction id="N1" type="dead_end" x="500.00" y="500.00" incLanes="E2N1_0 E2N1_1 E2N1_2" intLanes="" shape="496.80,500.00 509.60,500.00 500.00,500.00"/>
    <junction id="N2" type="dead_end" x="700.00" y="200.00" incLanes="I2N2_0" intLanes="" shape="700.00,200.00 703.20,200.00 700.00,200.00"/>
    <junction id="S1" type="dead_end" x="500.00" y="-500.00" incLanes="E4C4_0 E4C4_1 E4C4_2" intLanes="" shape="503.20,-500.00 490.40,-500.00 500.00,-500.00"/>
    <junction id="S2" type="dead_end" x="700.00" y="-30.00" incLanes="gneE0_0" intLanes="" shape="700.00,-30.00 696.80,-30.00 700.00,-30.00"/>

    <connection from="C1E1" to="E1I1" fromLane="0" toLane="0" via=":E1_3_0" dir="s" state="M"/>
    <connection from="C1E1" to="E1I1" fromLane="1" toLane="1" via=":E1_3_1" dir="s" state="M"/>
    <connection from="C1E1" to="E1I1" fromLane="1" toLane="2" via=":E1_3_2" dir="s" state="M"/>
    <connection from="C4E4" to="E4I1" fromLane="0" toLane="0" via=":E4_3_0" dir="s" state="M"/>
    <connection from="C4E4" to="E4I1" fromLane="1" toLane="1" via=":E4_3_1" dir="s" state="M"/>
    <connection from="C4E4" to="E4I1" fromLane="1" toLane="2" via=":E4_3_2" dir="s" state="M"/>
    <connection from="E1I1" to="I1E4" fromLane="0" toLane="0" via=":I1_15_0" tl="I1" linkIndex="15" dir="r" state="o"/>
    <connection from="E1I1" to="I1E3" fromLane="0" toLane="0" via=":I1_16_0" tl="I1" linkIndex="16" dir="s" state="o"/>
    <connection from="E1I1" to="I1E3" fromLane="1" toLane="1" via=":I1_16_1" tl="I1" linkIndex="17" dir="s" state="o"/>
    <connection from="E1I1" to="I1E2" fromLane="2" toLane="0" via=":I1_18_0" tl="I1" linkIndex="18" dir="l" state="o"/>
    <connection from="E1I1" to="I1E2" fromLane="2" toLane="1" via=":I1_19_0" tl="I1" linkIndex="19" dir="l" state="o"/>
    <connection from="E2I1" to="I1E1" fromLane="0" toLane="0" via=":I1_0_0" tl="I1" linkIndex="0" dir="r" state="O"/>
    <connection from="E2I1" to="I1E4" fromLane="0" toLane="0" via=":I1_1_0" tl="I1" linkIndex="1" dir="s" state="O"/>
    <connection from="E2I1" to="I1E4" fromLane="1" toLane="1" via=":I1_1_1" tl="I1" linkIndex="2" dir="s" state="O"/>
    <connection from="E2I1" to="I1E3" fromLane="2" toLane="0" via=":I1_3_0" tl="I1" linkIndex="3" dir="l" state="o"/>
    <connection from="E2I1" to="I1E3" fromLane="2" toLane="1" via=":I1_4_0" tl="I1" linkIndex="4" dir="l" state="o"/>
    <connection from="E3E5" to="E5I2" fromLane="0" toLane="0" via=":E5_2_0" dir="s" state="M"/>
    <connection from="E3E5" to="E5I2" fromLane="1" toLane="1" via=":E5_2_1" dir="s" state="M"/>
    <connection from="E3E5" to="E5I2" fromLane="1" toLane="2" via=":E5_2_2" dir="s" state="M"/>
    <connection from="E3I1" to="I1E2" fromLane="0" toLane="0" via=":I1_5_0" tl="I1" linkIndex="5" dir="r" state="o"/>
    <connection from="E3I1" to="I1E1" fromLane="0" toLane="0" via=":I1_6_0" tl="I1" linkIndex="6" dir="s" state="o"/>
    <connection from="E3I1" to="I1E1" fromLane="1" toLane="1" via=":I1_6_1" tl="I1" linkIndex="7" dir="s" state="o"/>
    <connection from="E3I1" to="I1E4" fromLane="2" toLane="0" via=":I1_8_0" tl="I1" linkIndex="8" dir="l" state="o"/>
    <connection from="E3I1" to="I1E4" fromLane="2" toLane="1" via=":I1_9_0" tl="I1" linkIndex="9" dir="l" state="o"/>
    <connection from="E4I1" to="I1E3" fromLane="0" toLane="0" via=":I1_10_0" tl="I1" linkIndex="10" dir="r" state="O"/>
    <connection from="E4I1" to="I1E2" fromLane="0" toLane="0" via=":I1_11_0" tl="I1" linkIndex="11" dir="s" state="O"/>