<additional>
   <inductionLoop id="02" lane="C1E1_1" pos="3"  file="NUL" freq="900" friendlyPos="false"/>
</additional>   