<?xml version="1.0" encoding="UTF-8"?>
<additional>
    <tlLogic id="I1" type="static" programID="a" offset="0">
        <phase duration="9" state="GGGrrrrrrrGGGrrrrrrr"/>
        <phase duration="3" state="yyyrrrrrrryyyrrrrrrr"/>
        <phase duration="2" state="rrrrrrrrrrrrrrrrrrrr"/>
        <phase duration="5" state="rrrGGrrrrrrrrGGrrrrr"/>
        <phase duration="3" state="rrryyrrrrrrrryyrrrrr"/>
        <phase duration="2" state="rrrrrrrrrrrrrrrrrrrr"/>
        <phase duration="18" state="rrrrrGGGrrrrrrrGGGrr"/>
        <phase duration="3" state="rrrrryyyrrrrrrryyyrr"/>
        <phase duration="2" state="rrrrrrrrrrrrrrrrrrrr"/>
        <phase duration="5" state="rrrrrrrrGGrrrrrrrrGG"/>
        <phase duration="3" state="rrrrrrrryyrrrrrrrryy"/>
        <phase duration="2" state="rrrrrrrrrrrrrrrrrrrr"/>
    </tlLogic>
</additional>
