<configuration>
	<input>
		<net-file value="thesis_single.net.xml"/>
		<route-files value="thesis_single_0.3_flow.rou.xml"/>
		<additional-files value="thesis_single.add.xml"/>
	</input>
	<time>
		<begin value="0"/>
		<end value="7200"/>
	</time>
</configuration>