<?xml version="1.0" encoding="UTF-8"?>
<routes>
	<vType id="Auto" length="4.0" accel="2.9" decel="7.5" speedFactor="1.0" jmDriveAfterRedTime = "0"/>
	<vType id="Bus" vClass="bus" length="8.5" accel="1.2" decel="4.0" minGap="3.0" speedFactor="1.1" jmDriveAfterRedTime = "0"/>
	<vType id="Special" vClass="emergency" accel="2.9" decel="4.0" length="5.0" jmDriveAfterRedTime = "0"/>

	<!--幹道車-->
	<flow id="Phase1THR_flow" type="Auto" beg="0" end="7500" vehsPerHour="453" color="1,1,0" from="N1E2" to="E4C4" departLane="0"/>
	<flow id="Phase1Right_flow" type="Auto" beg="0" end="7500" vehsPerHour="164" color="1,1,0" from="N1E2" to="E1C1" departLane="0"/>

	<flow id="Phase2_flow" type="Auto" beg="0" end="7500" vehsPerHour="149" color="1,1,0" from="C4E4" to="E1C1" departLane="1"/>
	
	<flow id="Phase3THR_flow" type="Auto" beg="0" end="7500" vehsPerHour="687" color="1,1,0" from="C1E1" to="E3J2" departLane="0"/>
	<flow id="Phase3Right_flow" type="Auto" beg="0" end="7500" vehsPerHour="51" color="1,1,0" from="C1E1" to="E4C4" departLane="0"/>

	<flow id="Phase4_flow" type="Auto" beg="0" end="7500" vehsPerHour="235" color="1,1,0" from="J2E3" to="E4C4" departLane="1"/>
	
	<flow id="Phase5THR_flow" type="Auto" beg="0" end="7500" vehsPerHour="671" color="1,1,0" from="C4E4" to="E2N1" departLane="0"/>	
	<flow id="Phase5Right_flow" type="Auto" beg="0" end="7500" vehsPerHour="201" color="1,1,0" from="C4E4" to="E3J2" departLane="0"/>	

	<flow id="Phase6_flow" type="Auto" beg="0" end="7500" vehsPerHour="116" color="1,1,0" from="N1E2" to="E3J2" departLane="1"/>
	
	<flow id="Phase7THR_flow" type="Auto" beg="0" end="7500" vehsPerHour="647" color="1,1,0" from="J2E3" to="E1C1" departLane="0"/>
	<flow id="Phase7Right_flow" type="Auto" beg="0" end="7500" vehsPerHour="38" color="1,1,0" from="J2E3" to="E2N1" departLane="0"/>
	
	<flow id="Phase8_flow" type="Auto" beg="0" end="7500" vehsPerHour="251" color="1,1,0" from="C1E1" to="E2N1" departLane="1"/>
	
	
		<!-- specialVehicle -->
	<routeDistribution id="SpecialRouteDist_1">
		
		<route id="routeEastbound_Thr" edges="J2E3 E3I1 I1E1 E1C1" probability="0.083"/>
		<route id="routeEastbound_Right" edges="J2E3 E3I1 I1E2 E2N1" probability="0.083"/>
		<route id="routeEastbound_Left" edges="J2E3 E3I1 I1E4 E4C4" probability="0.083"/>
		
		<route id="routeWestbound_Thr" edges="C1E1 E1I1 I1E3 E3J2" probability="0.083"/>
		<route id="routeWestbound_Right" edges="C1E1 E1I1 I1E4 E4C4" probability="0.083"/>
		<route id="routeWestbound_Left" edges="C1E1 E1I1 I1E2 E2N1" probability="0.083"/>
		
		<route id="routeNorthbound_Thr" edges="C4E4 E4I1 I1E2 E2N1" probability="0.083"/>
		<route id="routeNorthbound_Right" edges="C4E4 E4I1 I1E3 E3J2" probability="0.083"/>
		<route id="routeNorthbound_Left" edges="C4E4 E4I1 I1E1 E1C1" probability="0.083"/>
		
		<route id="routeSouthbound_Thr" edges="N1E2 E2I1 I1E4 E4C4" probability="0.083"/>
		<route id="routeSouthbound_Right" edges="N1E2 E2I1 I1E1 E1C1" probability="0.083"/>
		<route id="routeSouthbound_Left" edges="N1E2 E2I1 I1E3 E3J2" probability="0.083"/>
		
    </routeDistribution>
	
	<vehicle id="Special_1" type="Special" route="SpecialRouteDist_1" depart="0" color="1,0,1"/>
	<vehicle id="Special_2" type="Special" route="SpecialRouteDist_1" depart="150" color="1,0,1"/>
	<vehicle id="Special_3" type="Special" route="SpecialRouteDist_1" depart="300" color="1,0,1"/>
	<vehicle id="Special_4" type="Special" route="SpecialRouteDist_1" depart="450" color="1,0,1"/>
	<vehicle id="Special_5" type="Special" route="SpecialRouteDist_1" depart="600" color="1,0,1"/>

	<!-- specialVehicle -->
	
	
</routes>