<configuration>
	<input>
		<net-file value="thesis_single_500.net.xml"/>
		<route-files value="thesis_single_peakHour_flow_vc0.9.rou.xml"/>
	</input>
	<time>
		<begin value="0"/>
		<end value="7500"/>
	</time>
</configuration>